Quercetin


 27 29  0  0  0  0  0  0  0  0999 V2000
   50.0885   26.3524  -10.3259 C   0  0  0  0  0  0  0  0  0  0  0  0
   49.1790   26.3090   -9.3310 C   0  0  0  0  0  0  0  0  0  0  0  0
   48.5767   27.5940   -8.8840 C   0  0  0  0  0  0  0  0  0  0  0  0
   47.7271   27.6637   -7.9989 O   0  0  0  0  0  0  0  0  0  0  0  0
   49.0362   28.8179   -9.5506 C   0  0  0  0  0  0  0  0  0  0  0  0
   48.5236   30.0752   -9.2079 C   0  0  0  0  0  0  0  0  0  0  0  0
   48.9794   31.2216   -9.8539 C   0  0  0  0  0  0  0  0  0  0  0  0
   49.9521   31.1004  -10.8419 C   0  0  0  0  0  0  0  0  0  0  0  0
   50.4689   29.8556  -11.1920 C   0  0  0  0  0  0  0  0  0  0  0  0
   50.0049   28.7104  -10.5441 C   0  0  0  0  0  0  0  0  0  0  0  0
   50.5392   27.5106  -10.9372 O   0  0  0  0  0  0  0  0  0  0  0  0
   50.4300   32.1936  -11.5019 O   0  0  0  0  0  0  0  0  0  0  0  0
   47.5667   30.2533   -8.2446 O   0  0  0  0  0  0  0  0  0  0  0  0
   48.7635   25.1543   -8.6911 O   0  0  0  0  0  0  0  0  0  0  0  0
   49.9843   32.9869  -11.1587 H   0  0  0  0  0  0  0  0  0  0  0  0
   47.3422   29.3699   -7.8697 H   0  0  0  0  0  0  0  0  0  0  0  0
   49.3473   24.4203   -8.9457 H   0  0  0  0  0  0  0  0  0  0  0  0
   50.1342   24.4811  -11.9833 C   0  0  0  0  0  0  0  0  0  0  0  0
   50.6960   23.3052  -12.4909 C   0  0  0  0  0  0  0  0  0  0  0  0
   51.8390   22.7915  -11.8931 C   0  0  0  0  0  0  0  0  0  0  0  0
   52.4216   23.4458  -10.8101 C   0  0  0  0  0  0  0  0  0  0  0  0
   51.8714   24.6139  -10.2984 C   0  0  0  0  0  0  0  0  0  0  0  0
   50.7086   25.1358  -10.8774 C   0  0  0  0  0  0  0  0  0  0  0  0
   53.5473   22.9331  -10.2315 O   0  0  0  0  0  0  0  0  0  0  0  0
   52.4300   21.6403  -12.3328 O   0  0  0  0  0  0  0  0  0  0  0  0
   53.7509   22.1303  -10.7521 H   0  0  0  0  0  0  0  0  0  0  0  0
   51.9136   21.2969  -13.0825 H   0  0  0  0  0  0  0  0  0  0  0  0
 18 19  2  0  0  0
 19 20  1  0  0  0
 20 21  2  0  0  0
 21 22  1  0  0  0
 22 23  2  0  0  0
 18 23  1  0  0  0
 23  1  1  0  0  0
  1  2  2  0  0  0
  2  3  1  0  0  0
  3  4  2  0  0  0
  3  5  1  0  0  0
  5  6  2  0  0  0
  6  7  1  0  0  0
  7  8  2  0  0  0
  8  9  1  0  0  0
  9 10  2  0  0  0
  5 10  1  0  0  0
 10 11  1  0  0  0
  1 11  1  0  0  0
  8 12  1  0  0  0
  6 13  1  0  0  0
  2 14  1  0  0  0
 21 24  1  0  0  0
 20 25  1  0  0  0
 12 15  1  0  0  0
 13 16  1  0  0  0
 14 17  1  0  0  0
 24 26  1  0  0  0
 25 27  1  0  0  0
M  END
> <minimizedAffinity>
-5.91405

$$$$
Quercetin


 27 29  0  0  0  0  0  0  0  0999 V2000
   47.2206   28.7872   -8.8037 C   0  0  0  0  0  0  0  0  0  0  0  0
   46.2354   28.3175   -9.5960 C   0  0  0  0  0  0  0  0  0  0  0  0
   46.5219   27.1122  -10.4201 C   0  0  0  0  0  0  0  0  0  0  0  0
   45.6897   26.5938  -11.1609 O   0  0  0  0  0  0  0  0  0  0  0  0
   47.8681   26.5367  -10.3213 C   0  0  0  0  0  0  0  0  0  0  0  0
   48.2329   25.3976  -11.0495 C   0  0  0  0  0  0  0  0  0  0  0  0
   49.5185   24.8733  -10.9400 C   0  0  0  0  0  0  0  0  0  0  0  0
   50.4350   25.4983  -10.0995 C   0  0  0  0  0  0  0  0  0  0  0  0
   50.0838   26.6311   -9.3697 C   0  0  0  0  0  0  0  0  0  0  0  0
   48.7930   27.1487   -9.4804 C   0  0  0  0  0  0  0  0  0  0  0  0
   48.4983   28.2576   -8.7300 O   0  0  0  0  0  0  0  0  0  0  0  0
   51.7052   25.0228   -9.9598 O   0  0  0  0  0  0  0  0  0  0  0  0
   47.3731   24.7428  -11.8905 O   0  0  0  0  0  0  0  0  0  0  0  0
   44.9734   28.8758   -9.7014 O   0  0  0  0  0  0  0  0  0  0  0  0
   51.8091   24.2358  -10.5217 H   0  0  0  0  0  0  0  0  0  0  0  0
   46.5102   25.2189  -11.8766 H   0  0  0  0  0  0  0  0  0  0  0  0
   44.9690   29.7411   -9.2592 H   0  0  0  0  0  0  0  0  0  0  0  0
   47.2147   31.2530   -8.3910 C   0  0  0  0  0  0  0  0  0  0  0  0
   47.0690   32.3545   -7.5415 C   0  0  0  0  0  0  0  0  0  0  0  0
   46.7278   32.1405   -6.2127 C   0  0  0  0  0  0  0  0  0  0  0  0
   46.5239   30.8468   -5.7380 C   0  0  0  0  0  0  0  0  0  0  0  0
   46.6663   29.7465   -6.5733 C   0  0  0  0  0  0  0  0  0  0  0  0
   47.0279   29.9428   -7.9114 C   0  0  0  0  0  0  0  0  0  0  0  0
   46.1860   30.6481   -4.4299 O   0  0  0  0  0  0  0  0  0  0  0  0
   46.5822   33.1722   -5.3283 O   0  0  0  0  0  0  0  0  0  0  0  0
   46.1374   31.5467   -4.0463 H   0  0  0  0  0  0  0  0  0  0  0  0
   46.7596   34.0061   -5.7972 H   0  0  0  0  0  0  0  0  0  0  0  0
 18 19  2  0  0  0
 19 20  1  0  0  0
 20 21  2  0  0  0
 21 22  1  0  0  0
 22 23  2  0  0  0
 18 23  1  0  0  0
 23  1  1  0  0  0
  1  2  2  0  0  0
  2  3  1  0  0  0
  3  4  2  0  0  0
  3  5  1  0  0  0
  5  6  2  0  0  0
  6  7  1  0  0  0
  7  8  2  0  0  0
  8  9  1  0  0  0
  9 10  2  0  0  0
  5 10  1  0  0  0
 10 11  1  0  0  0
  1 11  1  0  0  0
  8 12  1  0  0  0
  6 13  1  0  0  0
  2 14  1  0  0  0
 21 24  1  0  0  0
 20 25  1  0  0  0
 12 15  1  0  0  0
 13 16  1  0  0  0
 14 17  1  0  0  0
 24 26  1  0  0  0
 25 27  1  0  0  0
M  END
> <minimizedAffinity>
-5.91088

$$$$
Quercetin


 27 29  0  0  0  0  0  0  0  0999 V2000
   52.1485   23.2370  -11.3576 C   0  0  0  0  0  0  0  0  0  0  0  0
   51.9031   24.1511  -10.3968 C   0  0  0  0  0  0  0  0  0  0  0  0
   50.6487   24.9449  -10.4974 C   0  0  0  0  0  0  0  0  0  0  0  0
   50.3217   25.7893   -9.6667 O   0  0  0  0  0  0  0  0  0  0  0  0
   49.7807   24.6842  -11.6515 C   0  0  0  0  0  0  0  0  0  0  0  0
   48.5745   25.3724  -11.8311 C   0  0  0  0  0  0  0  0  0  0  0  0
   47.7706   25.1081  -12.9371 C   0  0  0  0  0  0  0  0  0  0  0  0
   48.1838   24.1533  -13.8615 C   0  0  0  0  0  0  0  0  0  0  0  0
   49.3808   23.4618  -13.6934 C   0  0  0  0  0  0  0  0  0  0  0  0
   50.1794   23.7281  -12.5809 C   0  0  0  0  0  0  0  0  0  0  0  0
   51.3405   23.0093  -12.4593 O   0  0  0  0  0  0  0  0  0  0  0  0
   47.4314   23.8604  -14.9603 O   0  0  0  0  0  0  0  0  0  0  0  0
   48.1192   26.3210  -10.9546 O   0  0  0  0  0  0  0  0  0  0  0  0
   52.7348   24.4081   -9.3208 O   0  0  0  0  0  0  0  0  0  0  0  0
   46.6311   24.4128  -14.9487 H   0  0  0  0  0  0  0  0  0  0  0  0
   48.7813   26.4105  -10.2301 H   0  0  0  0  0  0  0  0  0  0  0  0
   53.5862   23.9612   -9.4614 H   0  0  0  0  0  0  0  0  0  0  0  0
   54.4507   22.6500  -12.1360 C   0  0  0  0  0  0  0  0  0  0  0  0
   55.5666   21.8068  -12.1406 C   0  0  0  0  0  0  0  0  0  0  0  0
   55.5645   20.6814  -11.3273 C   0  0  0  0  0  0  0  0  0  0  0  0
   54.4696   20.4045  -10.5118 C   0  0  0  0  0  0  0  0  0  0  0  0
   53.3568   21.2353  -10.5001 C   0  0  0  0  0  0  0  0  0  0  0  0
   53.3344   22.3643  -11.3275 C   0  0  0  0  0  0  0  0  0  0  0  0
   54.4793   19.2963   -9.7139 O   0  0  0  0  0  0  0  0  0  0  0  0
   56.6175   19.8109  -11.2945 O   0  0  0  0  0  0  0  0  0  0  0  0
   55.3476   18.8775   -9.8805 H   0  0  0  0  0  0  0  0  0  0  0  0
   57.2977   20.1281  -11.9138 H   0  0  0  0  0  0  0  0  0  0  0  0
 18 19  2  0  0  0
 19 20  1  0  0  0
 20 21  2  0  0  0
 21 22  1  0  0  0
 22 23  2  0  0  0
 18 23  1  0  0  0
 23  1  1  0  0  0
  1  2  2  0  0  0
  2  3  1  0  0  0
  3  4  2  0  0  0
  3  5  1  0  0  0
  5  6  2  0  0  0
  6  7  1  0  0  0
  7  8  2  0  0  0
  8  9  1  0  0  0
  9 10  2  0  0  0
  5 10  1  0  0  0
 10 11  1  0  0  0
  1 11  1  0  0  0
  8 12  1  0  0  0
  6 13  1  0  0  0
  2 14  1  0  0  0
 21 24  1  0  0  0
 20 25  1  0  0  0
 12 15  1  0  0  0
 13 16  1  0  0  0
 14 17  1  0  0  0
 24 26  1  0  0  0
 25 27  1  0  0  0
M  END
> <minimizedAffinity>
-5.63577

$$$$
Quercetin


 27 29  0  0  0  0  0  0  0  0999 V2000
   50.5140   25.6383  -11.5008 C   0  0  0  0  0  0  0  0  0  0  0  0
   50.7016   26.6769  -12.3404 C   0  0  0  0  0  0  0  0  0  0  0  0
   50.1324   27.9956  -11.9520 C   0  0  0  0  0  0  0  0  0  0  0  0
   50.2613   29.0086  -12.6357 O   0  0  0  0  0  0  0  0  0  0  0  0
   49.3899   28.0596  -10.6880 C   0  0  0  0  0  0  0  0  0  0  0  0
   48.8241   29.2561  -10.2306 C   0  0  0  0  0  0  0  0  0  0  0  0
   48.1213   29.2889   -9.0288 C   0  0  0  0  0  0  0  0  0  0  0  0
   47.9874   28.1164   -8.2910 C   0  0  0  0  0  0  0  0  0  0  0  0
   48.5462   26.9207   -8.7349 C   0  0  0  0  0  0  0  0  0  0  0  0
   49.2528   26.8956   -9.9376 C   0  0  0  0  0  0  0  0  0  0  0  0
   49.7921   25.6945  -10.3201 O   0  0  0  0  0  0  0  0  0  0  0  0
   47.3080   28.0983   -7.1089 O   0  0  0  0  0  0  0  0  0  0  0  0
   48.9244   30.4381  -10.9149 O   0  0  0  0  0  0  0  0  0  0  0  0
   51.3853   26.6073  -13.5418 O   0  0  0  0  0  0  0  0  0  0  0  0
   46.9758   28.9935   -6.9243 H   0  0  0  0  0  0  0  0  0  0  0  0
   49.4364   30.2710  -11.7403 H   0  0  0  0  0  0  0  0  0  0  0  0
   51.5507   25.6752  -13.7615 H   0  0  0  0  0  0  0  0  0  0  0  0
   50.5420   23.4921  -12.7828 C   0  0  0  0  0  0  0  0  0  0  0  0
   51.0467   22.2088  -13.0161 C   0  0  0  0  0  0  0  0  0  0  0  0
   52.0938   21.7434  -12.2320 C   0  0  0  0  0  0  0  0  0  0  0  0
   52.6386   22.5494  -11.2350 C   0  0  0  0  0  0  0  0  0  0  0  0
   52.1445   23.8250  -10.9953 C   0  0  0  0  0  0  0  0  0  0  0  0
   51.0769   24.3032  -11.7642 C   0  0  0  0  0  0  0  0  0  0  0  0
   53.6701   22.0826  -10.4714 O   0  0  0  0  0  0  0  0  0  0  0  0
   52.6240   20.4951  -12.4004 O   0  0  0  0  0  0  0  0  0  0  0  0
   53.8497   21.1855  -10.8178 H   0  0  0  0  0  0  0  0  0  0  0  0
   52.1432   20.0518  -13.1208 H   0  0  0  0  0  0  0  0  0  0  0  0
 18 19  2  0  0  0
 19 20  1  0  0  0
 20 21  2  0  0  0
 21 22  1  0  0  0
 22 23  2  0  0  0
 18 23  1  0  0  0
 23  1  1  0  0  0
  1  2  2  0  0  0
  2  3  1  0  0  0
  3  4  2  0  0  0
  3  5  1  0  0  0
  5  6  2  0  0  0
  6  7  1  0  0  0
  7  8  2  0  0  0
  8  9  1  0  0  0
  9 10  2  0  0  0
  5 10  1  0  0  0
 10 11  1  0  0  0
  1 11  1  0  0  0
  8 12  1  0  0  0
  6 13  1  0  0  0
  2 14  1  0  0  0
 21 24  1  0  0  0
 20 25  1  0  0  0
 12 15  1  0  0  0
 13 16  1  0  0  0
 14 17  1  0  0  0
 24 26  1  0  0  0
 25 27  1  0  0  0
M  END
> <minimizedAffinity>
-5.57431

$$$$
Quercetin


 27 29  0  0  0  0  0  0  0  0999 V2000
   50.9594   24.5006  -11.0866 C   0  0  0  0  0  0  0  0  0  0  0  0
   52.0493   24.0106  -10.4612 C   0  0  0  0  0  0  0  0  0  0  0  0
   52.6726   22.7784  -11.0152 C   0  0  0  0  0  0  0  0  0  0  0  0
   53.6772   22.2606  -10.5327 O   0  0  0  0  0  0  0  0  0  0  0  0
   52.0380   22.1773  -12.1938 C   0  0  0  0  0  0  0  0  0  0  0  0
   52.5539   21.0224  -12.7946 C   0  0  0  0  0  0  0  0  0  0  0  0
   51.9303   20.4702  -13.9107 C   0  0  0  0  0  0  0  0  0  0  0  0
   50.7871   21.0803  -14.4182 C   0  0  0  0  0  0  0  0  0  0  0  0
   50.2649   22.2295  -13.8300 C   0  0  0  0  0  0  0  0  0  0  0  0
   50.8969   22.7802  -12.7149 C   0  0  0  0  0  0  0  0  0  0  0  0
   50.3471   23.9185  -12.1841 O   0  0  0  0  0  0  0  0  0  0  0  0
   50.1412   20.5767  -15.5084 O   0  0  0  0  0  0  0  0  0  0  0  0
   53.6744   20.3810  -12.3380 O   0  0  0  0  0  0  0  0  0  0  0  0
   52.6326   24.5695   -9.3375 O   0  0  0  0  0  0  0  0  0  0  0  0
   50.6118   19.7816  -15.8121 H   0  0  0  0  0  0  0  0  0  0  0  0
   54.0065   20.8700  -11.5493 H   0  0  0  0  0  0  0  0  0  0  0  0
   52.0419   25.2517   -8.9768 H   0  0  0  0  0  0  0  0  0  0  0  0
   50.4805   26.9383  -11.3681 C   0  0  0  0  0  0  0  0  0  0  0  0
   49.8824   28.1284  -10.9416 C   0  0  0  0  0  0  0  0  0  0  0  0
   49.0916   28.1142   -9.8005 C   0  0  0  0  0  0  0  0  0  0  0  0
   48.8901   26.9279   -9.0986 C   0  0  0  0  0  0  0  0  0  0  0  0
   49.4797   25.7409   -9.5137 C   0  0  0  0  0  0  0  0  0  0  0  0
   50.2950   25.7409  -10.6516 C   0  0  0  0  0  0  0  0  0  0  0  0
   48.1081   26.9248   -7.9790 O   0  0  0  0  0  0  0  0  0  0  0  0
   48.4892   29.2446   -9.3239 O   0  0  0  0  0  0  0  0  0  0  0  0
   47.8023   27.8495   -7.8868 H   0  0  0  0  0  0  0  0  0  0  0  0
   48.7232   29.9868   -9.9079 H   0  0  0  0  0  0  0  0  0  0  0  0
 18 19  2  0  0  0
 19 20  1  0  0  0
 20 21  2  0  0  0
 21 22  1  0  0  0
 22 23  2  0  0  0
 18 23  1  0  0  0
 23  1  1  0  0  0
  1  2  2  0  0  0
  2  3  1  0  0  0
  3  4  2  0  0  0
  3  5  1  0  0  0
  5  6  2  0  0  0
  6  7  1  0  0  0
  7  8  2  0  0  0
  8  9  1  0  0  0
  9 10  2  0  0  0
  5 10  1  0  0  0
 10 11  1  0  0  0
  1 11  1  0  0  0
  8 12  1  0  0  0
  6 13  1  0  0  0
  2 14  1  0  0  0
 21 24  1  0  0  0
 20 25  1  0  0  0
 12 15  1  0  0  0
 13 16  1  0  0  0
 14 17  1  0  0  0
 24 26  1  0  0  0
 25 27  1  0  0  0
M  END
> <minimizedAffinity>
-5.52814

$$$$
