Quercetin


 27 29  0  0  0  0  0  0  0  0999 V2000
   57.0540   22.8907  -13.0324 C   0  0  0  0  0  0  0  0  0  0  0  0
   58.1272   22.0739  -13.0306 C   0  0  0  0  0  0  0  0  0  0  0  0
   58.0291   20.7997  -12.2685 C   0  0  0  0  0  0  0  0  0  0  0  0
   58.9414   19.9780  -12.2169 O   0  0  0  0  0  0  0  0  0  0  0  0
   56.7723   20.5384  -11.5577 C   0  0  0  0  0  0  0  0  0  0  0  0
   56.5785   19.3639  -10.8202 C   0  0  0  0  0  0  0  0  0  0  0  0
   55.3770   19.1419  -10.1520 C   0  0  0  0  0  0  0  0  0  0  0  0
   54.3739   20.1039  -10.2254 C   0  0  0  0  0  0  0  0  0  0  0  0
   54.5545   21.2754  -10.9562 C   0  0  0  0  0  0  0  0  0  0  0  0
   55.7589   21.4898  -11.6270 C   0  0  0  0  0  0  0  0  0  0  0  0
   55.8774   22.6542  -12.3409 O   0  0  0  0  0  0  0  0  0  0  0  0
   53.1809   19.9320   -9.5879 O   0  0  0  0  0  0  0  0  0  0  0  0
   57.5297   18.3846  -10.7134 O   0  0  0  0  0  0  0  0  0  0  0  0
   59.3182   22.3340  -13.6859 O   0  0  0  0  0  0  0  0  0  0  0  0
   53.1944   19.0784   -9.1220 H   0  0  0  0  0  0  0  0  0  0  0  0
   58.3222   18.6713  -11.2244 H   0  0  0  0  0  0  0  0  0  0  0  0
   59.3195   23.2562  -13.9921 H   0  0  0  0  0  0  0  0  0  0  0  0
   56.5037   24.1832  -15.1005 C   0  0  0  0  0  0  0  0  0  0  0  0
   56.5068   25.3676  -15.8443 C   0  0  0  0  0  0  0  0  0  0  0  0
   57.0275   26.5210  -15.2731 C   0  0  0  0  0  0  0  0  0  0  0  0
   57.5294   26.4981  -13.9738 C   0  0  0  0  0  0  0  0  0  0  0  0
   57.5311   25.3271  -13.2270 C   0  0  0  0  0  0  0  0  0  0  0  0
   57.0267   24.1508  -13.7940 C   0  0  0  0  0  0  0  0  0  0  0  0
   58.0367   27.6390  -13.4208 O   0  0  0  0  0  0  0  0  0  0  0  0
   57.0714   27.7072  -15.9504 O   0  0  0  0  0  0  0  0  0  0  0  0
   57.9264   28.3213  -14.1132 H   0  0  0  0  0  0  0  0  0  0  0  0
   56.6955   27.5686  -16.8371 H   0  0  0  0  0  0  0  0  0  0  0  0
 18 19  2  0  0  0
 19 20  1  0  0  0
 20 21  2  0  0  0
 21 22  1  0  0  0
 22 23  2  0  0  0
 18 23  1  0  0  0
 23  1  1  0  0  0
  1  2  2  0  0  0
  2  3  1  0  0  0
  3  4  2  0  0  0
  3  5  1  0  0  0
  5  6  2  0  0  0
  6  7  1  0  0  0
  7  8  2  0  0  0
  8  9  1  0  0  0
  9 10  2  0  0  0
  5 10  1  0  0  0
 10 11  1  0  0  0
  1 11  1  0  0  0
  8 12  1  0  0  0
  6 13  1  0  0  0
  2 14  1  0  0  0
 21 24  1  0  0  0
 20 25  1  0  0  0
 12 15  1  0  0  0
 13 16  1  0  0  0
 14 17  1  0  0  0
 24 26  1  0  0  0
 25 27  1  0  0  0
M  END
> <minimizedAffinity>
-6.89189

$$$$
Quercetin


 27 29  0  0  0  0  0  0  0  0999 V2000
   57.0672   25.4504  -13.8296 C   0  0  0  0  0  0  0  0  0  0  0  0
   57.1275   25.7429  -15.1448 C   0  0  0  0  0  0  0  0  0  0  0  0
   57.4498   27.1432  -15.5309 C   0  0  0  0  0  0  0  0  0  0  0  0
   57.5466   27.5106  -16.6996 O   0  0  0  0  0  0  0  0  0  0  0  0
   57.6586   28.1073  -14.4446 C   0  0  0  0  0  0  0  0  0  0  0  0
   57.9752   29.4464  -14.7046 C   0  0  0  0  0  0  0  0  0  0  0  0
   58.1652   30.3419  -13.6551 C   0  0  0  0  0  0  0  0  0  0  0  0
   58.0337   29.8881  -12.3460 C   0  0  0  0  0  0  0  0  0  0  0  0
   57.7199   28.5588  -12.0748 C   0  0  0  0  0  0  0  0  0  0  0  0
   57.5352   27.6657  -13.1306 C   0  0  0  0  0  0  0  0  0  0  0  0
   57.2404   26.3668  -12.8056 O   0  0  0  0  0  0  0  0  0  0  0  0
   58.2095   30.7270  -11.2855 O   0  0  0  0  0  0  0  0  0  0  0  0
   58.1168   29.9471  -15.9713 O   0  0  0  0  0  0  0  0  0  0  0  0
   56.9096   24.8347  -16.1662 O   0  0  0  0  0  0  0  0  0  0  0  0
   58.4224   31.6150  -11.6201 H   0  0  0  0  0  0  0  0  0  0  0  0
   57.9513   29.2147  -16.6097 H   0  0  0  0  0  0  0  0  0  0  0  0
   56.5417   24.0164  -15.7929 H   0  0  0  0  0  0  0  0  0  0  0  0
   55.5753   23.4566  -13.6066 C   0  0  0  0  0  0  0  0  0  0  0  0
   55.3043   22.1760  -13.1139 C   0  0  0  0  0  0  0  0  0  0  0  0
   56.2714   21.5253  -12.3597 C   0  0  0  0  0  0  0  0  0  0  0  0
   57.4971   22.1374  -12.1077 C   0  0  0  0  0  0  0  0  0  0  0  0
   57.7759   23.4088  -12.5921 C   0  0  0  0  0  0  0  0  0  0  0  0
   56.8053   24.0868  -13.3389 C   0  0  0  0  0  0  0  0  0  0  0  0
   58.4422   21.4871  -11.3669 O   0  0  0  0  0  0  0  0  0  0  0  0
   56.0648   20.2787  -11.8391 O   0  0  0  0  0  0  0  0  0  0  0  0
   58.0350   20.6256  -11.1453 H   0  0  0  0  0  0  0  0  0  0  0  0
   55.1718   19.9850  -12.0903 H   0  0  0  0  0  0  0  0  0  0  0  0
 18 19  2  0  0  0
 19 20  1  0  0  0
 20 21  2  0  0  0
 21 22  1  0  0  0
 22 23  2  0  0  0
 18 23  1  0  0  0
 23  1  1  0  0  0
  1  2  2  0  0  0
  2  3  1  0  0  0
  3  4  2  0  0  0
  3  5  1  0  0  0
  5  6  2  0  0  0
  6  7  1  0  0  0
  7  8  2  0  0  0
  8  9  1  0  0  0
  9 10  2  0  0  0
  5 10  1  0  0  0
 10 11  1  0  0  0
  1 11  1  0  0  0
  8 12  1  0  0  0
  6 13  1  0  0  0
  2 14  1  0  0  0
 21 24  1  0  0  0
 20 25  1  0  0  0
 12 15  1  0  0  0
 13 16  1  0  0  0
 14 17  1  0  0  0
 24 26  1  0  0  0
 25 27  1  0  0  0
M  END
> <minimizedAffinity>
-6.64936

$$$$
Quercetin


 27 29  0  0  0  0  0  0  0  0999 V2000
   56.5685   23.4454  -13.2848 C   0  0  0  0  0  0  0  0  0  0  0  0
   55.3097   23.0331  -13.0310 C   0  0  0  0  0  0  0  0  0  0  0  0
   55.1332   21.7433  -12.3107 C   0  0  0  0  0  0  0  0  0  0  0  0
   54.0315   21.2864  -12.0148 O   0  0  0  0  0  0  0  0  0  0  0  0
   56.3488   21.0058  -11.9478 C   0  0  0  0  0  0  0  0  0  0  0  0
   56.2886   19.7872  -11.2607 C   0  0  0  0  0  0  0  0  0  0  0  0
   57.4576   19.1058  -10.9311 C   0  0  0  0  0  0  0  0  0  0  0  0
   58.6848   19.6513  -11.2961 C   0  0  0  0  0  0  0  0  0  0  0  0
   58.7576   20.8628  -11.9789 C   0  0  0  0  0  0  0  0  0  0  0  0
   57.5830   21.5426  -12.3022 C   0  0  0  0  0  0  0  0  0  0  0  0
   57.7142   22.7365  -12.9634 O   0  0  0  0  0  0  0  0  0  0  0  0
   59.8563   19.0213  -10.9963 O   0  0  0  0  0  0  0  0  0  0  0  0
   55.1101   19.2045  -10.8773 O   0  0  0  0  0  0  0  0  0  0  0  0
   54.1654   23.7221  -13.3932 O   0  0  0  0  0  0  0  0  0  0  0  0
   59.6560   18.1954  -10.5234 H   0  0  0  0  0  0  0  0  0  0  0  0
   54.3711   19.7841  -11.1761 H   0  0  0  0  0  0  0  0  0  0  0  0
   54.4049   24.4428  -13.9995 H   0  0  0  0  0  0  0  0  0  0  0  0
   56.4550   24.9512  -15.2773 C   0  0  0  0  0  0  0  0  0  0  0  0
   56.7562   26.1534  -15.9254 C   0  0  0  0  0  0  0  0  0  0  0  0
   57.4533   27.1354  -15.2345 C   0  0  0  0  0  0  0  0  0  0  0  0
   57.8369   26.9274  -13.9116 C   0  0  0  0  0  0  0  0  0  0  0  0
   57.5429   25.7371  -13.2592 C   0  0  0  0  0  0  0  0  0  0  0  0
   56.8567   24.7290  -13.9466 C   0  0  0  0  0  0  0  0  0  0  0  0
   58.5199   27.9012  -13.2407 O   0  0  0  0  0  0  0  0  0  0  0  0
   57.7894   28.3268  -15.8137 O   0  0  0  0  0  0  0  0  0  0  0  0
   58.6045   28.6336  -13.8837 H   0  0  0  0  0  0  0  0  0  0  0  0
   57.4639   28.3252  -16.7306 H   0  0  0  0  0  0  0  0  0  0  0  0
 18 19  2  0  0  0
 19 20  1  0  0  0
 20 21  2  0  0  0
 21 22  1  0  0  0
 22 23  2  0  0  0
 18 23  1  0  0  0
 23  1  1  0  0  0
  1  2  2  0  0  0
  2  3  1  0  0  0
  3  4  2  0  0  0
  3  5  1  0  0  0
  5  6  2  0  0  0
  6  7  1  0  0  0
  7  8  2  0  0  0
  8  9  1  0  0  0
  9 10  2  0  0  0
  5 10  1  0  0  0
 10 11  1  0  0  0
  1 11  1  0  0  0
  8 12  1  0  0  0
  6 13  1  0  0  0
  2 14  1  0  0  0
 21 24  1  0  0  0
 20 25  1  0  0  0
 12 15  1  0  0  0
 13 16  1  0  0  0
 14 17  1  0  0  0
 24 26  1  0  0  0
 25 27  1  0  0  0
M  END
> <minimizedAffinity>
-6.52771

$$$$
Quercetin


 27 29  0  0  0  0  0  0  0  0999 V2000
   57.4515   26.4021  -14.1393 C   0  0  0  0  0  0  0  0  0  0  0  0
   56.7745   26.1723  -15.2829 C   0  0  0  0  0  0  0  0  0  0  0  0
   56.2378   24.8031  -15.5092 C   0  0  0  0  0  0  0  0  0  0  0  0
   55.5924   24.4930  -16.5079 O   0  0  0  0  0  0  0  0  0  0  0  0
   56.5055   23.7982  -14.4739 C   0  0  0  0  0  0  0  0  0  0  0  0
   56.0354   22.4843  -14.5896 C   0  0  0  0  0  0  0  0  0  0  0  0
   56.3062   21.5489  -13.5940 C   0  0  0  0  0  0  0  0  0  0  0  0
   57.0519   21.9376  -12.4850 C   0  0  0  0  0  0  0  0  0  0  0  0
   57.5241   23.2415  -12.3583 C   0  0  0  0  0  0  0  0  0  0  0  0
   57.2455   24.1749  -13.3571 C   0  0  0  0  0  0  0  0  0  0  0  0
   57.7243   25.4465  -13.1746 O   0  0  0  0  0  0  0  0  0  0  0  0
   57.3432   21.0579  -11.4849 O   0  0  0  0  0  0  0  0  0  0  0  0
   55.2980   22.0471  -15.6576 O   0  0  0  0  0  0  0  0  0  0  0  0
   56.5420   27.1180  -16.2663 O   0  0  0  0  0  0  0  0  0  0  0  0
   56.9539   20.1940  -11.7038 H   0  0  0  0  0  0  0  0  0  0  0  0
   55.1872   22.8017  -16.2819 H   0  0  0  0  0  0  0  0  0  0  0  0
   57.0828   27.9052  -16.0867 H   0  0  0  0  0  0  0  0  0  0  0  0
   58.9026   28.3752  -14.6411 C   0  0  0  0  0  0  0  0  0  0  0  0
   59.4382   29.6221  -14.3026 C   0  0  0  0  0  0  0  0  0  0  0  0
   59.0421   30.2264  -13.1170 C   0  0  0  0  0  0  0  0  0  0  0  0
   58.1166   29.6023  -12.2838 C   0  0  0  0  0  0  0  0  0  0  0  0
   57.5791   28.3641  -12.6108 C   0  0  0  0  0  0  0  0  0  0  0  0
   57.9811   27.7320  -13.7933 C   0  0  0  0  0  0  0  0  0  0  0  0
   57.7320   30.2070  -11.1214 O   0  0  0  0  0  0  0  0  0  0  0  0
   59.5367   31.4378  -12.7224 O   0  0  0  0  0  0  0  0  0  0  0  0
   58.2244   31.0522  -11.1061 H   0  0  0  0  0  0  0  0  0  0  0  0
   60.1698   31.7448  -13.3945 H   0  0  0  0  0  0  0  0  0  0  0  0
 18 19  2  0  0  0
 19 20  1  0  0  0
 20 21  2  0  0  0
 21 22  1  0  0  0
 22 23  2  0  0  0
 18 23  1  0  0  0
 23  1  1  0  0  0
  1  2  2  0  0  0
  2  3  1  0  0  0
  3  4  2  0  0  0
  3  5  1  0  0  0
  5  6  2  0  0  0
  6  7  1  0  0  0
  7  8  2  0  0  0
  8  9  1  0  0  0
  9 10  2  0  0  0
  5 10  1  0  0  0
 10 11  1  0  0  0
  1 11  1  0  0  0
  8 12  1  0  0  0
  6 13  1  0  0  0
  2 14  1  0  0  0
 21 24  1  0  0  0
 20 25  1  0  0  0
 12 15  1  0  0  0
 13 16  1  0  0  0
 14 17  1  0  0  0
 24 26  1  0  0  0
 25 27  1  0  0  0
M  END
> <minimizedAffinity>
-6.40708

$$$$
Quercetin


 27 29  0  0  0  0  0  0  0  0999 V2000
   59.0493   31.0254  -14.6662 C   0  0  0  0  0  0  0  0  0  0  0  0
   59.0055   30.5785  -13.3944 C   0  0  0  0  0  0  0  0  0  0  0  0
   58.4483   29.2200  -13.1544 C   0  0  0  0  0  0  0  0  0  0  0  0
   58.3795   28.7117  -12.0377 O   0  0  0  0  0  0  0  0  0  0  0  0
   57.9684   28.4755  -14.3243 C   0  0  0  0  0  0  0  0  0  0  0  0
   57.4353   27.1863  -14.2040 C   0  0  0  0  0  0  0  0  0  0  0  0
   56.9840   26.5026  -15.3301 C   0  0  0  0  0  0  0  0  0  0  0  0
   57.0679   27.1192  -16.5750 C   0  0  0  0  0  0  0  0  0  0  0  0
   57.5967   28.4006  -16.7076 C   0  0  0  0  0  0  0  0  0  0  0  0
   58.0513   29.0783  -15.5760 C   0  0  0  0  0  0  0  0  0  0  0  0
   58.5736   30.3316  -15.7665 O   0  0  0  0  0  0  0  0  0  0  0  0
   56.6384   26.4906  -17.7062 O   0  0  0  0  0  0  0  0  0  0  0  0
   57.3286   26.5321  -13.0056 O   0  0  0  0  0  0  0  0  0  0  0  0
   59.4405   31.2925  -12.2915 O   0  0  0  0  0  0  0  0  0  0  0  0
   56.2975   25.6119  -17.4664 H   0  0  0  0  0  0  0  0  0  0  0  0
   57.6758   27.1269  -12.3007 H   0  0  0  0  0  0  0  0  0  0  0  0
   59.6135   32.2120  -12.5541 H   0  0  0  0  0  0  0  0  0  0  0  0
   59.0021   33.5243  -14.6033 C   0  0  0  0  0  0  0  0  0  0  0  0
   59.5230   34.7708  -14.9653 C   0  0  0  0  0  0  0  0  0  0  0  0
   60.6749   34.8212  -15.7388 C   0  0  0  0  0  0  0  0  0  0  0  0
   61.3063   33.6455  -16.1383 C   0  0  0  0  0  0  0  0  0  0  0  0
   60.7970   32.4029  -15.7843 C   0  0  0  0  0  0  0  0  0  0  0  0
   59.6262   32.3334  -15.0201 C   0  0  0  0  0  0  0  0  0  0  0  0
   62.4403   33.7067  -16.8967 O   0  0  0  0  0  0  0  0  0  0  0  0
   61.2276   36.0061  -16.1366 O   0  0  0  0  0  0  0  0  0  0  0  0
   62.6103   34.6631  -17.0130 H   0  0  0  0  0  0  0  0  0  0  0  0
   60.6797   36.7320  -15.7910 H   0  0  0  0  0  0  0  0  0  0  0  0
 18 19  2  0  0  0
 19 20  1  0  0  0
 20 21  2  0  0  0
 21 22  1  0  0  0
 22 23  2  0  0  0
 18 23  1  0  0  0
 23  1  1  0  0  0
  1  2  2  0  0  0
  2  3  1  0  0  0
  3  4  2  0  0  0
  3  5  1  0  0  0
  5  6  2  0  0  0
  6  7  1  0  0  0
  7  8  2  0  0  0
  8  9  1  0  0  0
  9 10  2  0  0  0
  5 10  1  0  0  0
 10 11  1  0  0  0
  1 11  1  0  0  0
  8 12  1  0  0  0
  6 13  1  0  0  0
  2 14  1  0  0  0
 21 24  1  0  0  0
 20 25  1  0  0  0
 12 15  1  0  0  0
 13 16  1  0  0  0
 14 17  1  0  0  0
 24 26  1  0  0  0
 25 27  1  0  0  0
M  END
> <minimizedAffinity>
-6.21391

$$$$
