Quercetin


 27 29  0  0  0  0  0  0  0  0999 V2000
   61.6032    4.7890   -2.3786 C   0  0  0  0  0  0  0  0  0  0  0  0
   62.2364    5.9791   -2.4181 C   0  0  0  0  0  0  0  0  0  0  0  0
   61.5821    7.0898   -3.1611 C   0  0  0  0  0  0  0  0  0  0  0  0
   62.0649    8.2168   -3.2434 O   0  0  0  0  0  0  0  0  0  0  0  0
   60.3009    6.7969   -3.8138 C   0  0  0  0  0  0  0  0  0  0  0  0
   59.6022    7.7772   -4.5291 C   0  0  0  0  0  0  0  0  0  0  0  0
   58.3895    7.4721   -5.1420 C   0  0  0  0  0  0  0  0  0  0  0  0
   57.8837    6.1799   -5.0356 C   0  0  0  0  0  0  0  0  0  0  0  0
   58.5688    5.1966   -4.3263 C   0  0  0  0  0  0  0  0  0  0  0  0
   59.7810    5.5100   -3.7109 C   0  0  0  0  0  0  0  0  0  0  0  0
   60.4060    4.5072   -3.0156 O   0  0  0  0  0  0  0  0  0  0  0  0
   56.7010    5.8329   -5.6187 O   0  0  0  0  0  0  0  0  0  0  0  0
   60.0523    9.0633   -4.6664 O   0  0  0  0  0  0  0  0  0  0  0  0
   63.4549    6.2452   -1.8181 O   0  0  0  0  0  0  0  0  0  0  0  0
   56.3365    6.6104   -6.0753 H   0  0  0  0  0  0  0  0  0  0  0  0
   60.9139    9.1377   -4.1936 H   0  0  0  0  0  0  0  0  0  0  0  0
   63.8544    5.4102   -1.5224 H   0  0  0  0  0  0  0  0  0  0  0  0
   63.4647    3.2130   -1.8296 C   0  0  0  0  0  0  0  0  0  0  0  0
   63.9696    2.0996   -1.1501 C   0  0  0  0  0  0  0  0  0  0  0  0
   63.1445    1.4191   -0.2648 C   0  0  0  0  0  0  0  0  0  0  0  0
   61.8365    1.8477   -0.0506 C   0  0  0  0  0  0  0  0  0  0  0  0
   61.3257    2.9518   -0.7204 C   0  0  0  0  0  0  0  0  0  0  0  0
   62.1378    3.6387   -1.6304 C   0  0  0  0  0  0  0  0  0  0  0  0
   61.0346    1.1724    0.8246 O   0  0  0  0  0  0  0  0  0  0  0  0
   63.5724    0.3170    0.4209 O   0  0  0  0  0  0  0  0  0  0  0  0
   61.5979    0.4528    1.1736 H   0  0  0  0  0  0  0  0  0  0  0  0
   64.4940    0.1359    0.1668 H   0  0  0  0  0  0  0  0  0  0  0  0
 18 19  2  0  0  0
 19 20  1  0  0  0
 20 21  2  0  0  0
 21 22  1  0  0  0
 22 23  2  0  0  0
 18 23  1  0  0  0
 23  1  1  0  0  0
  1  2  2  0  0  0
  2  3  1  0  0  0
  3  4  2  0  0  0
  3  5  1  0  0  0
  5  6  2  0  0  0
  6  7  1  0  0  0
  7  8  2  0  0  0
  8  9  1  0  0  0
  9 10  2  0  0  0
  5 10  1  0  0  0
 10 11  1  0  0  0
  1 11  1  0  0  0
  8 12  1  0  0  0
  6 13  1  0  0  0
  2 14  1  0  0  0
 21 24  1  0  0  0
 20 25  1  0  0  0
 12 15  1  0  0  0
 13 16  1  0  0  0
 14 17  1  0  0  0
 24 26  1  0  0  0
 25 27  1  0  0  0
M  END
> <minimizedAffinity>
-6.55322

$$$$
Quercetin


 27 29  0  0  0  0  0  0  0  0999 V2000
   62.3043    3.6964   -1.6896 C   0  0  0  0  0  0  0  0  0  0  0  0
   62.9379    4.8828   -1.5895 C   0  0  0  0  0  0  0  0  0  0  0  0
   62.3482    6.0476   -2.3030 C   0  0  0  0  0  0  0  0  0  0  0  0
   62.8356    7.1749   -2.2626 O   0  0  0  0  0  0  0  0  0  0  0  0
   61.1270    5.8095   -3.0810 C   0  0  0  0  0  0  0  0  0  0  0  0
   60.4909    6.8427   -3.7802 C   0  0  0  0  0  0  0  0  0  0  0  0
   59.3346    6.5891   -4.5137 C   0  0  0  0  0  0  0  0  0  0  0  0
   58.8224    5.2954   -4.5440 C   0  0  0  0  0  0  0  0  0  0  0  0
   59.4455    4.2599   -3.8522 C   0  0  0  0  0  0  0  0  0  0  0  0
   60.6011    4.5215   -3.1155 C   0  0  0  0  0  0  0  0  0  0  0  0
   61.1655    3.4678   -2.4441 O   0  0  0  0  0  0  0  0  0  0  0  0
   57.6935    4.9979   -5.2485 O   0  0  0  0  0  0  0  0  0  0  0  0
   60.9503    8.1328   -3.7858 O   0  0  0  0  0  0  0  0  0  0  0  0
   64.1011    5.0982   -0.8711 O   0  0  0  0  0  0  0  0  0  0  0  0
   57.3685    5.8083   -5.6769 H   0  0  0  0  0  0  0  0  0  0  0  0
   61.7686    8.1682   -3.2377 H   0  0  0  0  0  0  0  0  0  0  0  0
   64.4746    4.2419   -0.6036 H   0  0  0  0  0  0  0  0  0  0  0  0
   64.0805    2.0094   -1.1897 C   0  0  0  0  0  0  0  0  0  0  0  0
   64.5232    0.8464   -0.5514 C   0  0  0  0  0  0  0  0  0  0  0  0
   63.6571    0.1732    0.2997 C   0  0  0  0  0  0  0  0  0  0  0  0
   62.3698    0.6573    0.5207 C   0  0  0  0  0  0  0  0  0  0  0  0
   61.9205    1.8111   -0.1083 C   0  0  0  0  0  0  0  0  0  0  0  0
   62.7744    2.4923   -0.9839 C   0  0  0  0  0  0  0  0  0  0  0  0
   61.5272   -0.0113    1.3620 O   0  0  0  0  0  0  0  0  0  0  0  0
   64.0235   -0.9750    0.9440 O   0  0  0  0  0  0  0  0  0  0  0  0
   62.0510   -0.7713    1.6863 H   0  0  0  0  0  0  0  0  0  0  0  0
   64.9375   -1.1915    0.6900 H   0  0  0  0  0  0  0  0  0  0  0  0
 18 19  2  0  0  0
 19 20  1  0  0  0
 20 21  2  0  0  0
 21 22  1  0  0  0
 22 23  2  0  0  0
 18 23  1  0  0  0
 23  1  1  0  0  0
  1  2  2  0  0  0
  2  3  1  0  0  0
  3  4  2  0  0  0
  3  5  1  0  0  0
  5  6  2  0  0  0
  6  7  1  0  0  0
  7  8  2  0  0  0
  8  9  1  0  0  0
  9 10  2  0  0  0
  5 10  1  0  0  0
 10 11  1  0  0  0
  1 11  1  0  0  0
  8 12  1  0  0  0
  6 13  1  0  0  0
  2 14  1  0  0  0
 21 24  1  0  0  0
 20 25  1  0  0  0
 12 15  1  0  0  0
 13 16  1  0  0  0
 14 17  1  0  0  0
 24 26  1  0  0  0
 25 27  1  0  0  0
M  END
> <minimizedAffinity>
-6.46734

$$$$
Quercetin


 27 29  0  0  0  0  0  0  0  0999 V2000
   62.2828    3.9887   -2.1391 C   0  0  0  0  0  0  0  0  0  0  0  0
   63.1458    3.1800   -2.7875 C   0  0  0  0  0  0  0  0  0  0  0  0
   63.2905    1.7828   -2.2971 C   0  0  0  0  0  0  0  0  0  0  0  0
   64.0349    0.9606   -2.8263 O   0  0  0  0  0  0  0  0  0  0  0  0
   62.4934    1.3966   -1.1271 C   0  0  0  0  0  0  0  0  0  0  0  0
   62.5523    0.1024   -0.5955 C   0  0  0  0  0  0  0  0  0  0  0  0
   61.7877   -0.2373    0.5178 C   0  0  0  0  0  0  0  0  0  0  0  0
   60.9672    0.7273    1.0952 C   0  0  0  0  0  0  0  0  0  0  0  0
   60.8995    2.0173    0.5752 C   0  0  0  0  0  0  0  0  0  0  0  0
   61.6646    2.3499   -0.5430 C   0  0  0  0  0  0  0  0  0  0  0  0
   61.5495    3.6301   -1.0201 O   0  0  0  0  0  0  0  0  0  0  0  0
   60.2007    0.4426    2.1864 O   0  0  0  0  0  0  0  0  0  0  0  0
   63.3412   -0.8852   -1.1223 O   0  0  0  0  0  0  0  0  0  0  0  0
   63.9109    3.5546   -3.8782 O   0  0  0  0  0  0  0  0  0  0  0  0
   60.3463   -0.4853    2.4385 H   0  0  0  0  0  0  0  0  0  0  0  0
   63.8265   -0.5099   -1.8936 H   0  0  0  0  0  0  0  0  0  0  0  0
   63.8597    4.5188   -3.9882 H   0  0  0  0  0  0  0  0  0  0  0  0
   62.8621    6.4207   -2.1403 C   0  0  0  0  0  0  0  0  0  0  0  0
   62.6052    7.7430   -2.5168 C   0  0  0  0  0  0  0  0  0  0  0  0
   61.5145    8.0117   -3.3328 C   0  0  0  0  0  0  0  0  0  0  0  0
   60.6958    6.9760   -3.7770 C   0  0  0  0  0  0  0  0  0  0  0  0
   60.9422    5.6598   -3.4087 C   0  0  0  0  0  0  0  0  0  0  0  0
   62.0268    5.3730   -2.5715 C   0  0  0  0  0  0  0  0  0  0  0  0
   59.6272    7.2514   -4.5815 O   0  0  0  0  0  0  0  0  0  0  0  0
   61.2015    9.2825   -3.7264 O   0  0  0  0  0  0  0  0  0  0  0  0
   59.6562    8.2207   -4.7103 H   0  0  0  0  0  0  0  0  0  0  0  0
   61.8516    9.8933   -3.3377 H   0  0  0  0  0  0  0  0  0  0  0  0
 18 19  2  0  0  0
 19 20  1  0  0  0
 20 21  2  0  0  0
 21 22  1  0  0  0
 22 23  2  0  0  0
 18 23  1  0  0  0
 23  1  1  0  0  0
  1  2  2  0  0  0
  2  3  1  0  0  0
  3  4  2  0  0  0
  3  5  1  0  0  0
  5  6  2  0  0  0
  6  7  1  0  0  0
  7  8  2  0  0  0
  8  9  1  0  0  0
  9 10  2  0  0  0
  5 10  1  0  0  0
 10 11  1  0  0  0
  1 11  1  0  0  0
  8 12  1  0  0  0
  6 13  1  0  0  0
  2 14  1  0  0  0
 21 24  1  0  0  0
 20 25  1  0  0  0
 12 15  1  0  0  0
 13 16  1  0  0  0
 14 17  1  0  0  0
 24 26  1  0  0  0
 25 27  1  0  0  0
M  END
> <minimizedAffinity>
-6.43396

$$$$
Quercetin


 27 29  0  0  0  0  0  0  0  0999 V2000
   60.8904    3.5337   -0.3306 C   0  0  0  0  0  0  0  0  0  0  0  0
   60.8556    4.0662   -1.5692 C   0  0  0  0  0  0  0  0  0  0  0  0
   61.7121    3.4462   -2.6161 C   0  0  0  0  0  0  0  0  0  0  0  0
   61.7415    3.8424   -3.7789 O   0  0  0  0  0  0  0  0  0  0  0  0
   62.5479    2.3096   -2.2125 C   0  0  0  0  0  0  0  0  0  0  0  0
   63.3813    1.6524   -3.1260 C   0  0  0  0  0  0  0  0  0  0  0  0
   64.1669    0.5780   -2.7162 C   0  0  0  0  0  0  0  0  0  0  0  0
   64.1139    0.1690   -1.3869 C   0  0  0  0  0  0  0  0  0  0  0  0
   63.2885    0.8140   -0.4694 C   0  0  0  0  0  0  0  0  0  0  0  0
   62.5006    1.8868   -0.8873 C   0  0  0  0  0  0  0  0  0  0  0  0
   61.6979    2.4765    0.0548 O   0  0  0  0  0  0  0  0  0  0  0  0
   64.8648   -0.8770   -0.9383 O   0  0  0  0  0  0  0  0  0  0  0  0
   63.4732    2.0118   -4.4442 O   0  0  0  0  0  0  0  0  0  0  0  0
   60.0811    5.1514   -1.9405 O   0  0  0  0  0  0  0  0  0  0  0  0
   65.3872   -1.2287   -1.6794 H   0  0  0  0  0  0  0  0  0  0  0  0
   62.8752    2.7809   -4.5937 H   0  0  0  0  0  0  0  0  0  0  0  0
   59.7110    5.5671   -1.1439 H   0  0  0  0  0  0  0  0  0  0  0  0
   58.7584    3.5102    0.9750 C   0  0  0  0  0  0  0  0  0  0  0  0
   57.9362    4.0083    1.9909 C   0  0  0  0  0  0  0  0  0  0  0  0
   58.4107    5.0308    2.8016 C   0  0  0  0  0  0  0  0  0  0  0  0
   59.6915    5.5440    2.6100 C   0  0  0  0  0  0  0  0  0  0  0  0
   60.5155    5.0564    1.6040 C   0  0  0  0  0  0  0  0  0  0  0  0
   60.0463    4.0382    0.7657 C   0  0  0  0  0  0  0  0  0  0  0  0
   60.1491    6.5478    3.4149 O   0  0  0  0  0  0  0  0  0  0  0  0
   57.6535    5.5699    3.8034 O   0  0  0  0  0  0  0  0  0  0  0  0
   59.4160    6.7193    4.0396 H   0  0  0  0  0  0  0  0  0  0  0  0
   56.7909    5.1198    3.8126 H   0  0  0  0  0  0  0  0  0  0  0  0
 18 19  2  0  0  0
 19 20  1  0  0  0
 20 21  2  0  0  0
 21 22  1  0  0  0
 22 23  2  0  0  0
 18 23  1  0  0  0
 23  1  1  0  0  0
  1  2  2  0  0  0
  2  3  1  0  0  0
  3  4  2  0  0  0
  3  5  1  0  0  0
  5  6  2  0  0  0
  6  7  1  0  0  0
  7  8  2  0  0  0
  8  9  1  0  0  0
  9 10  2  0  0  0
  5 10  1  0  0  0
 10 11  1  0  0  0
  1 11  1  0  0  0
  8 12  1  0  0  0
  6 13  1  0  0  0
  2 14  1  0  0  0
 21 24  1  0  0  0
 20 25  1  0  0  0
 12 15  1  0  0  0
 13 16  1  0  0  0
 14 17  1  0  0  0
 24 26  1  0  0  0
 25 27  1  0  0  0
M  END
> <minimizedAffinity>
-6.39411

$$$$
Quercetin


 27 29  0  0  0  0  0  0  0  0999 V2000
   62.0261    3.5620   -1.1534 C   0  0  0  0  0  0  0  0  0  0  0  0
   60.9985    3.0349   -0.4569 C   0  0  0  0  0  0  0  0  0  0  0  0
   61.2174    1.7299    0.2234 C   0  0  0  0  0  0  0  0  0  0  0  0
   60.3541    1.1725    0.8973 O   0  0  0  0  0  0  0  0  0  0  0  0
   62.5355    1.1044    0.0664 C   0  0  0  0  0  0  0  0  0  0  0  0
   62.8429   -0.1189    0.6747 C   0  0  0  0  0  0  0  0  0  0  0  0
   64.1007   -0.6926    0.5070 C   0  0  0  0  0  0  0  0  0  0  0  0
   65.0458   -0.0350   -0.2749 C   0  0  0  0  0  0  0  0  0  0  0  0
   64.7522    1.1823   -0.8842 C   0  0  0  0  0  0  0  0  0  0  0  0
   63.4917    1.7539   -0.7086 C   0  0  0  0  0  0  0  0  0  0  0  0
   63.2616    2.9588   -1.3210 O   0  0  0  0  0  0  0  0  0  0  0  0
   66.2903   -0.5572   -0.4690 O   0  0  0  0  0  0  0  0  0  0  0  0
   61.9528   -0.8092    1.4535 O   0  0  0  0  0  0  0  0  0  0  0  0
   59.7502    3.6186   -0.3283 O   0  0  0  0  0  0  0  0  0  0  0  0
   66.3547   -1.4008    0.0106 H   0  0  0  0  0  0  0  0  0  0  0  0
   61.1108   -0.2977    1.4820 H   0  0  0  0  0  0  0  0  0  0  0  0
   59.6796    4.3619   -0.9504 H   0  0  0  0  0  0  0  0  0  0  0  0
   62.9587    5.8228   -1.6726 C   0  0  0  0  0  0  0  0  0  0  0  0
   62.8616    7.0814   -2.2749 C   0  0  0  0  0  0  0  0  0  0  0  0
   61.7383    7.3804   -3.0341 C   0  0  0  0  0  0  0  0  0  0  0  0
   60.7290    6.4348   -3.2004 C   0  0  0  0  0  0  0  0  0  0  0  0
   60.8158    5.1825   -2.6064 C   0  0  0  0  0  0  0  0  0  0  0  0
   61.9328    4.8706   -1.8224 C   0  0  0  0  0  0  0  0  0  0  0  0
   59.6298    6.7387   -3.9515 O   0  0  0  0  0  0  0  0  0  0  0  0
   61.5765    8.5955   -3.6385 O   0  0  0  0  0  0  0  0  0  0  0  0
   59.7887    7.6509   -4.2671 H   0  0  0  0  0  0  0  0  0  0  0  0
   62.3502    9.1475   -3.4304 H   0  0  0  0  0  0  0  0  0  0  0  0
 18 19  2  0  0  0
 19 20  1  0  0  0
 20 21  2  0  0  0
 21 22  1  0  0  0
 22 23  2  0  0  0
 18 23  1  0  0  0
 23  1  1  0  0  0
  1  2  2  0  0  0
  2  3  1  0  0  0
  3  4  2  0  0  0
  3  5  1  0  0  0
  5  6  2  0  0  0
  6  7  1  0  0  0
  7  8  2  0  0  0
  8  9  1  0  0  0
  9 10  2  0  0  0
  5 10  1  0  0  0
 10 11  1  0  0  0
  1 11  1  0  0  0
  8 12  1  0  0  0
  6 13  1  0  0  0
  2 14  1  0  0  0
 21 24  1  0  0  0
 20 25  1  0  0  0
 12 15  1  0  0  0
 13 16  1  0  0  0
 14 17  1  0  0  0
 24 26  1  0  0  0
 25 27  1  0  0  0
M  END
> <minimizedAffinity>
-6.25930

$$$$
