Quercetin


 27 29  0  0  0  0  0  0  0  0999 V2000
   65.7267   19.9699   -2.5235 C   0  0  0  0  0  0  0  0  0  0  0  0
   65.6846   18.6279   -2.6506 C   0  0  0  0  0  0  0  0  0  0  0  0
   66.0067   17.8063   -1.4528 C   0  0  0  0  0  0  0  0  0  0  0  0
   65.9804   16.5777   -1.4562 O   0  0  0  0  0  0  0  0  0  0  0  0
   66.3666   18.5237   -0.2243 C   0  0  0  0  0  0  0  0  0  0  0  0
   66.6774   17.8411    0.9582 C   0  0  0  0  0  0  0  0  0  0  0  0
   67.0191   18.5461    2.1095 C   0  0  0  0  0  0  0  0  0  0  0  0
   67.0496   19.9369    2.0675 C   0  0  0  0  0  0  0  0  0  0  0  0
   66.7418   20.6269    0.8978 C   0  0  0  0  0  0  0  0  0  0  0  0
   66.3960   19.9148   -0.2510 C   0  0  0  0  0  0  0  0  0  0  0  0
   66.0904   20.6453   -1.3703 O   0  0  0  0  0  0  0  0  0  0  0  0
   67.3787   20.6708    3.1685 O   0  0  0  0  0  0  0  0  0  0  0  0
   66.6636   16.4752    1.0567 O   0  0  0  0  0  0  0  0  0  0  0  0
   65.3644   17.9552   -3.8170 O   0  0  0  0  0  0  0  0  0  0  0  0
   67.5671   20.0641    3.9050 H   0  0  0  0  0  0  0  0  0  0  0  0
   66.4137   16.1078    0.1770 H   0  0  0  0  0  0  0  0  0  0  0  0
   65.3486   18.5864   -4.5557 H   0  0  0  0  0  0  0  0  0  0  0  0
   64.9493   20.3576   -4.8678 C   0  0  0  0  0  0  0  0  0  0  0  0
   64.6507   21.2091   -5.9365 C   0  0  0  0  0  0  0  0  0  0  0  0
   64.7746   22.5807   -5.7604 C   0  0  0  0  0  0  0  0  0  0  0  0
   65.1807   23.0989   -4.5328 C   0  0  0  0  0  0  0  0  0  0  0  0
   65.4798   22.2620   -3.4656 C   0  0  0  0  0  0  0  0  0  0  0  0
   65.3780   20.8756   -3.6311 C   0  0  0  0  0  0  0  0  0  0  0  0
   65.2966   24.4498   -4.3700 O   0  0  0  0  0  0  0  0  0  0  0  0
   64.5102   23.4658   -6.7676 O   0  0  0  0  0  0  0  0  0  0  0  0
   65.0337   24.8277   -5.2331 H   0  0  0  0  0  0  0  0  0  0  0  0
   64.2464   22.9626   -7.5575 H   0  0  0  0  0  0  0  0  0  0  0  0
 18 19  2  0  0  0
 19 20  1  0  0  0
 20 21  2  0  0  0
 21 22  1  0  0  0
 22 23  2  0  0  0
 18 23  1  0  0  0
 23  1  1  0  0  0
  1  2  2  0  0  0
  2  3  1  0  0  0
  3  4  2  0  0  0
  3  5  1  0  0  0
  5  6  2  0  0  0
  6  7  1  0  0  0
  7  8  2  0  0  0
  8  9  1  0  0  0
  9 10  2  0  0  0
  5 10  1  0  0  0
 10 11  1  0  0  0
  1 11  1  0  0  0
  8 12  1  0  0  0
  6 13  1  0  0  0
  2 14  1  0  0  0
 21 24  1  0  0  0
 20 25  1  0  0  0
 12 15  1  0  0  0
 13 16  1  0  0  0
 14 17  1  0  0  0
 24 26  1  0  0  0
 25 27  1  0  0  0
M  END
> <minimizedAffinity>
3.46635

$$$$
Quercetin


 27 29  0  0  0  0  0  0  0  0999 V2000
   65.9420   19.4192   -1.7387 C   0  0  0  0  0  0  0  0  0  0  0  0
   66.1051   20.0765   -0.5724 C   0  0  0  0  0  0  0  0  0  0  0  0
   66.5112   19.2849    0.6202 C   0  0  0  0  0  0  0  0  0  0  0  0
   66.7036   19.7881    1.7246 O   0  0  0  0  0  0  0  0  0  0  0  0
   66.6843   17.8391    0.4383 C   0  0  0  0  0  0  0  0  0  0  0  0
   67.0735   17.0092    1.4969 C   0  0  0  0  0  0  0  0  0  0  0  0
   67.2275   15.6394    1.2982 C   0  0  0  0  0  0  0  0  0  0  0  0
   66.9871   15.1075    0.0348 C   0  0  0  0  0  0  0  0  0  0  0  0
   66.6005   15.9227   -1.0259 C   0  0  0  0  0  0  0  0  0  0  0  0
   66.4522   17.2948   -0.8214 C   0  0  0  0  0  0  0  0  0  0  0  0
   66.0820   18.0511   -1.9033 O   0  0  0  0  0  0  0  0  0  0  0  0
   67.1240   13.7729   -0.2086 O   0  0  0  0  0  0  0  0  0  0  0  0
   67.3229   17.4777    2.7593 O   0  0  0  0  0  0  0  0  0  0  0  0
   65.9208   21.4374   -0.4008 O   0  0  0  0  0  0  0  0  0  0  0  0
   67.3962   13.3305    0.6136 H   0  0  0  0  0  0  0  0  0  0  0  0
   67.1716   18.4516    2.7593 H   0  0  0  0  0  0  0  0  0  0  0  0
   65.4943   21.8044   -1.1931 H   0  0  0  0  0  0  0  0  0  0  0  0
   65.2651   19.3783   -4.1451 C   0  0  0  0  0  0  0  0  0  0  0  0
   64.9651   20.0285   -5.3465 C   0  0  0  0  0  0  0  0  0  0  0  0
   64.9839   21.4163   -5.3849 C   0  0  0  0  0  0  0  0  0  0  0  0
   65.2873   22.1480   -4.2390 C   0  0  0  0  0  0  0  0  0  0  0  0
   65.5868   21.5119   -3.0412 C   0  0  0  0  0  0  0  0  0  0  0  0
   65.5905   20.1130   -2.9893 C   0  0  0  0  0  0  0  0  0  0  0  0
   65.3002   23.5126   -4.2874 O   0  0  0  0  0  0  0  0  0  0  0  0
   64.7125   22.1118   -6.5296 O   0  0  0  0  0  0  0  0  0  0  0  0
   65.0579   23.7311   -5.2096 H   0  0  0  0  0  0  0  0  0  0  0  0
   64.5266   21.4735   -7.2400 H   0  0  0  0  0  0  0  0  0  0  0  0
 18 19  2  0  0  0
 19 20  1  0  0  0
 20 21  2  0  0  0
 21 22  1  0  0  0
 22 23  2  0  0  0
 18 23  1  0  0  0
 23  1  1  0  0  0
  1  2  2  0  0  0
  2  3  1  0  0  0
  3  4  2  0  0  0
  3  5  1  0  0  0
  5  6  2  0  0  0
  6  7  1  0  0  0
  7  8  2  0  0  0
  8  9  1  0  0  0
  9 10  2  0  0  0
  5 10  1  0  0  0
 10 11  1  0  0  0
  1 11  1  0  0  0
  8 12  1  0  0  0
  6 13  1  0  0  0
  2 14  1  0  0  0
 21 24  1  0  0  0
 20 25  1  0  0  0
 12 15  1  0  0  0
 13 16  1  0  0  0
 14 17  1  0  0  0
 24 26  1  0  0  0
 25 27  1  0  0  0
M  END
> <minimizedAffinity>
5.36768

$$$$
