Quercetin


 27 29  0  0  0  0  0  0  0  0999 V2000
   56.4257   35.7787   -7.0778 C   0  0  0  0  0  0  0  0  0  0  0  0
   56.0631   35.0553   -8.1567 C   0  0  0  0  0  0  0  0  0  0  0  0
   54.6090   34.8889   -8.4247 C   0  0  0  0  0  0  0  0  0  0  0  0
   54.1726   34.2648   -9.3892 O   0  0  0  0  0  0  0  0  0  0  0  0
   53.6769   35.5115   -7.4777 C   0  0  0  0  0  0  0  0  0  0  0  0
   52.2900   35.4197   -7.6475 C   0  0  0  0  0  0  0  0  0  0  0  0
   51.4271   36.0172   -6.7322 C   0  0  0  0  0  0  0  0  0  0  0  0
   51.9622   36.7038   -5.6463 C   0  0  0  0  0  0  0  0  0  0  0  0
   53.3396   36.8026   -5.4671 C   0  0  0  0  0  0  0  0  0  0  0  0
   54.1987   36.2056   -6.3901 C   0  0  0  0  0  0  0  0  0  0  0  0
   55.5449   36.3451   -6.1713 O   0  0  0  0  0  0  0  0  0  0  0  0
   51.1581   37.3045   -4.7233 O   0  0  0  0  0  0  0  0  0  0  0  0
   51.7090   34.7574   -8.6960 O   0  0  0  0  0  0  0  0  0  0  0  0
   56.9458   34.4525   -9.0359 O   0  0  0  0  0  0  0  0  0  0  0  0
   50.2298   37.1564   -4.9723 H   0  0  0  0  0  0  0  0  0  0  0  0
   52.4277   34.3822   -9.2564 H   0  0  0  0  0  0  0  0  0  0  0  0
   57.8418   34.4844   -8.6611 H   0  0  0  0  0  0  0  0  0  0  0  0
   58.3968   37.3144   -6.9938 C   0  0  0  0  0  0  0  0  0  0  0  0
   59.7445   37.5669   -6.7183 C   0  0  0  0  0  0  0  0  0  0  0  0
   60.5267   36.5490   -6.1895 C   0  0  0  0  0  0  0  0  0  0  0  0
   59.9717   35.2982   -5.9284 C   0  0  0  0  0  0  0  0  0  0  0  0
   58.6347   35.0373   -6.1986 C   0  0  0  0  0  0  0  0  0  0  0  0
   57.8360   36.0467   -6.7491 C   0  0  0  0  0  0  0  0  0  0  0  0
   60.7496   34.3050   -5.4057 O   0  0  0  0  0  0  0  0  0  0  0  0
   61.8525   36.7268   -5.9095 O   0  0  0  0  0  0  0  0  0  0  0  0
   61.6321   34.7124   -5.2953 H   0  0  0  0  0  0  0  0  0  0  0  0
   62.0971   37.6381   -6.1470 H   0  0  0  0  0  0  0  0  0  0  0  0
 18 19  2  0  0  0
 19 20  1  0  0  0
 20 21  2  0  0  0
 21 22  1  0  0  0
 22 23  2  0  0  0
 18 23  1  0  0  0
 23  1  1  0  0  0
  1  2  2  0  0  0
  2  3  1  0  0  0
  3  4  2  0  0  0
  3  5  1  0  0  0
  5  6  2  0  0  0
  6  7  1  0  0  0
  7  8  2  0  0  0
  8  9  1  0  0  0
  9 10  2  0  0  0
  5 10  1  0  0  0
 10 11  1  0  0  0
  1 11  1  0  0  0
  8 12  1  0  0  0
  6 13  1  0  0  0
  2 14  1  0  0  0
 21 24  1  0  0  0
 20 25  1  0  0  0
 12 15  1  0  0  0
 13 16  1  0  0  0
 14 17  1  0  0  0
 24 26  1  0  0  0
 25 27  1  0  0  0
M  END
> <minimizedAffinity>
-8.60148

$$$$
Quercetin


 27 29  0  0  0  0  0  0  0  0999 V2000
   56.6203   35.3283   -7.9284 C   0  0  0  0  0  0  0  0  0  0  0  0
   55.4044   35.3650   -7.3460 C   0  0  0  0  0  0  0  0  0  0  0  0
   54.2427   34.8681   -8.1316 C   0  0  0  0  0  0  0  0  0  0  0  0
   53.0967   34.8413   -7.6888 O   0  0  0  0  0  0  0  0  0  0  0  0
   54.5085   34.3925   -9.4941 C   0  0  0  0  0  0  0  0  0  0  0  0
   53.4838   33.8972  -10.3099 C   0  0  0  0  0  0  0  0  0  0  0  0
   53.7625   33.4549  -11.6007 C   0  0  0  0  0  0  0  0  0  0  0  0
   55.0720   33.5144  -12.0685 C   0  0  0  0  0  0  0  0  0  0  0  0
   56.0996   34.0041  -11.2664 C   0  0  0  0  0  0  0  0  0  0  0  0
   55.8144   34.4415   -9.9727 C   0  0  0  0  0  0  0  0  0  0  0  0
   56.8660   34.9019   -9.2231 O   0  0  0  0  0  0  0  0  0  0  0  0
   55.3941   33.0938  -13.3249 O   0  0  0  0  0  0  0  0  0  0  0  0
   52.1790   33.8159   -9.9021 O   0  0  0  0  0  0  0  0  0  0  0  0
   55.1553   35.8336   -6.0678 O   0  0  0  0  0  0  0  0  0  0  0  0
   54.5867   32.7801  -13.7672 H   0  0  0  0  0  0  0  0  0  0  0  0
   52.1242   34.1637   -8.9816 H   0  0  0  0  0  0  0  0  0  0  0  0
   55.9483   36.2842   -5.7325 H   0  0  0  0  0  0  0  0  0  0  0  0
   58.2189   37.1049   -7.1945 C   0  0  0  0  0  0  0  0  0  0  0  0
   59.3969   37.5085   -6.5577 C   0  0  0  0  0  0  0  0  0  0  0  0
   60.1925   36.5513   -5.9424 C   0  0  0  0  0  0  0  0  0  0  0  0
   59.8150   35.2105   -5.9519 C   0  0  0  0  0  0  0  0  0  0  0  0
   58.6474   34.7995   -6.5817 C   0  0  0  0  0  0  0  0  0  0  0  0
   57.8427   35.7488   -7.2228 C   0  0  0  0  0  0  0  0  0  0  0  0
   60.6037   34.2778   -5.3413 O   0  0  0  0  0  0  0  0  0  0  0  0
   61.3614   36.8779   -5.3139 O   0  0  0  0  0  0  0  0  0  0  0  0
   61.3503   34.7888   -4.9690 H   0  0  0  0  0  0  0  0  0  0  0  0
   61.4951   37.8383   -5.3938 H   0  0  0  0  0  0  0  0  0  0  0  0
 18 19  2  0  0  0
 19 20  1  0  0  0
 20 21  2  0  0  0
 21 22  1  0  0  0
 22 23  2  0  0  0
 18 23  1  0  0  0
 23  1  1  0  0  0
  1  2  2  0  0  0
  2  3  1  0  0  0
  3  4  2  0  0  0
  3  5  1  0  0  0
  5  6  2  0  0  0
  6  7  1  0  0  0
  7  8  2  0  0  0
  8  9  1  0  0  0
  9 10  2  0  0  0
  5 10  1  0  0  0
 10 11  1  0  0  0
  1 11  1  0  0  0
  8 12  1  0  0  0
  6 13  1  0  0  0
  2 14  1  0  0  0
 21 24  1  0  0  0
 20 25  1  0  0  0
 12 15  1  0  0  0
 13 16  1  0  0  0
 14 17  1  0  0  0
 24 26  1  0  0  0
 25 27  1  0  0  0
M  END
> <minimizedAffinity>
-8.16196

$$$$
Quercetin


 27 29  0  0  0  0  0  0  0  0999 V2000
   56.7932   35.5798   -7.6506 C   0  0  0  0  0  0  0  0  0  0  0  0
   55.7152   35.7507   -6.8583 C   0  0  0  0  0  0  0  0  0  0  0  0
   54.3943   35.3028   -7.3765 C   0  0  0  0  0  0  0  0  0  0  0  0
   53.3540   35.3962   -6.7291 O   0  0  0  0  0  0  0  0  0  0  0  0
   54.3637   34.7247   -8.7249 C   0  0  0  0  0  0  0  0  0  0  0  0
   53.1715   34.2654   -9.2980 C   0  0  0  0  0  0  0  0  0  0  0  0
   53.1695   33.7239  -10.5810 C   0  0  0  0  0  0  0  0  0  0  0  0
   54.3674   33.6481  -11.2855 C   0  0  0  0  0  0  0  0  0  0  0  0
   55.5595   34.1008  -10.7260 C   0  0  0  0  0  0  0  0  0  0  0  0
   55.5555   34.6382   -9.4385 C   0  0  0  0  0  0  0  0  0  0  0  0
   56.7591   35.0566   -8.9326 O   0  0  0  0  0  0  0  0  0  0  0  0
   54.4158   33.1267  -12.5445 O   0  0  0  0  0  0  0  0  0  0  0  0
   51.9653   34.3154   -8.6515 O   0  0  0  0  0  0  0  0  0  0  0  0
   55.7456   36.3153   -5.5951 O   0  0  0  0  0  0  0  0  0  0  0  0
   53.5198   32.8532  -12.8053 H   0  0  0  0  0  0  0  0  0  0  0  0
   52.1100   34.7221   -7.7655 H   0  0  0  0  0  0  0  0  0  0  0  0
   56.6167   36.7196   -5.4468 H   0  0  0  0  0  0  0  0  0  0  0  0
   58.9132   35.0510   -6.4356 C   0  0  0  0  0  0  0  0  0  0  0  0
   60.1913   35.4013   -5.9886 C   0  0  0  0  0  0  0  0  0  0  0  0
   60.7089   36.6429   -6.3327 C   0  0  0  0  0  0  0  0  0  0  0  0
   59.9678   37.5206   -7.1205 C   0  0  0  0  0  0  0  0  0  0  0  0
   58.6977   37.1823   -7.5692 C   0  0  0  0  0  0  0  0  0  0  0  0
   58.1530   35.9420   -7.2164 C   0  0  0  0  0  0  0  0  0  0  0  0
   60.4877   38.7382   -7.4552 O   0  0  0  0  0  0  0  0  0  0  0  0
   61.9457   37.0508   -5.9181 O   0  0  0  0  0  0  0  0  0  0  0  0
   61.3747   38.7517   -7.0427 H   0  0  0  0  0  0  0  0  0  0  0  0
   62.3372   36.3432   -5.3772 H   0  0  0  0  0  0  0  0  0  0  0  0
 18 19  2  0  0  0
 19 20  1  0  0  0
 20 21  2  0  0  0
 21 22  1  0  0  0
 22 23  2  0  0  0
 18 23  1  0  0  0
 23  1  1  0  0  0
  1  2  2  0  0  0
  2  3  1  0  0  0
  3  4  2  0  0  0
  3  5  1  0  0  0
  5  6  2  0  0  0
  6  7  1  0  0  0
  7  8  2  0  0  0
  8  9  1  0  0  0
  9 10  2  0  0  0
  5 10  1  0  0  0
 10 11  1  0  0  0
  1 11  1  0  0  0
  8 12  1  0  0  0
  6 13  1  0  0  0
  2 14  1  0  0  0
 21 24  1  0  0  0
 20 25  1  0  0  0
 12 15  1  0  0  0
 13 16  1  0  0  0
 14 17  1  0  0  0
 24 26  1  0  0  0
 25 27  1  0  0  0
M  END
> <minimizedAffinity>
-7.96579

$$$$
Quercetin


 27 29  0  0  0  0  0  0  0  0999 V2000
   56.0563   35.7550   -8.3540 C   0  0  0  0  0  0  0  0  0  0  0  0
   56.3849   37.0068   -8.7333 C   0  0  0  0  0  0  0  0  0  0  0  0
   57.7044   37.5402   -8.2994 C   0  0  0  0  0  0  0  0  0  0  0  0
   58.1077   38.6601   -8.6049 O   0  0  0  0  0  0  0  0  0  0  0  0
   58.5420   36.6653   -7.4710 C   0  0  0  0  0  0  0  0  0  0  0  0
   59.8038   37.0719   -7.0200 C   0  0  0  0  0  0  0  0  0  0  0  0
   60.5775   36.2232   -6.2322 C   0  0  0  0  0  0  0  0  0  0  0  0
   60.0782   34.9678   -5.8978 C   0  0  0  0  0  0  0  0  0  0  0  0
   58.8252   34.5520   -6.3409 C   0  0  0  0  0  0  0  0  0  0  0  0
   58.0570   35.4052   -7.1336 C   0  0  0  0  0  0  0  0  0  0  0  0
   56.8372   34.9396   -7.5518 O   0  0  0  0  0  0  0  0  0  0  0  0
   60.7980   34.1022   -5.1286 O   0  0  0  0  0  0  0  0  0  0  0  0
   60.3442   38.2944   -7.3179 O   0  0  0  0  0  0  0  0  0  0  0  0
   55.5829   37.8362   -9.4977 O   0  0  0  0  0  0  0  0  0  0  0  0
   61.6441   34.5204   -4.8939 H   0  0  0  0  0  0  0  0  0  0  0  0
   59.6951   38.7891   -7.8704 H   0  0  0  0  0  0  0  0  0  0  0  0
   54.6948   37.4477   -9.5657 H   0  0  0  0  0  0  0  0  0  0  0  0
   54.7382   34.3662   -9.9616 C   0  0  0  0  0  0  0  0  0  0  0  0
   53.5386   33.7830  -10.3824 C   0  0  0  0  0  0  0  0  0  0  0  0
   52.4013   33.9428   -9.6021 C   0  0  0  0  0  0  0  0  0  0  0  0
   52.4598   34.6653   -8.4126 C   0  0  0  0  0  0  0  0  0  0  0  0
   53.6459   35.2483   -7.9861 C   0  0  0  0  0  0  0  0  0  0  0  0
   54.7979   35.1127   -8.7697 C   0  0  0  0  0  0  0  0  0  0  0  0
   51.3357   34.8138   -7.6515 O   0  0  0  0  0  0  0  0  0  0  0  0
   51.1960   33.4092   -9.9630 O   0  0  0  0  0  0  0  0  0  0  0  0
   50.6411   34.3236   -8.1355 H   0  0  0  0  0  0  0  0  0  0  0  0
   51.3076   32.9429  -10.8096 H   0  0  0  0  0  0  0  0  0  0  0  0
 18 19  2  0  0  0
 19 20  1  0  0  0
 20 21  2  0  0  0
 21 22  1  0  0  0
 22 23  2  0  0  0
 18 23  1  0  0  0
 23  1  1  0  0  0
  1  2  2  0  0  0
  2  3  1  0  0  0
  3  4  2  0  0  0
  3  5  1  0  0  0
  5  6  2  0  0  0
  6  7  1  0  0  0
  7  8  2  0  0  0
  8  9  1  0  0  0
  9 10  2  0  0  0
  5 10  1  0  0  0
 10 11  1  0  0  0
  1 11  1  0  0  0
  8 12  1  0  0  0
  6 13  1  0  0  0
  2 14  1  0  0  0
 21 24  1  0  0  0
 20 25  1  0  0  0
 12 15  1  0  0  0
 13 16  1  0  0  0
 14 17  1  0  0  0
 24 26  1  0  0  0
 25 27  1  0  0  0
M  END
> <minimizedAffinity>
-7.65928

$$$$
Quercetin


 27 29  0  0  0  0  0  0  0  0999 V2000
   55.4688   36.6085   -7.2685 C   0  0  0  0  0  0  0  0  0  0  0  0
   55.9068   37.8201   -7.6673 C   0  0  0  0  0  0  0  0  0  0  0  0
   57.3724   38.0745   -7.6338 C   0  0  0  0  0  0  0  0  0  0  0  0
   57.8766   39.1363   -7.9921 O   0  0  0  0  0  0  0  0  0  0  0  0
   58.2308   36.9880   -7.1478 C   0  0  0  0  0  0  0  0  0  0  0  0
   59.6230   37.1260   -7.0867 C   0  0  0  0  0  0  0  0  0  0  0  0
   60.4146   36.0804   -6.6183 C   0  0  0  0  0  0  0  0  0  0  0  0
   59.8029   34.8988   -6.2099 C   0  0  0  0  0  0  0  0  0  0  0  0
   58.4196   34.7494   -6.2666 C   0  0  0  0  0  0  0  0  0  0  0  0
   57.6325   35.7991   -6.7411 C   0  0  0  0  0  0  0  0  0  0  0  0
   56.2779   35.5927   -6.7869 O   0  0  0  0  0  0  0  0  0  0  0  0
   60.5354   33.8477   -5.7434 O   0  0  0  0  0  0  0  0  0  0  0  0
   60.2775   38.2646   -7.4748 O   0  0  0  0  0  0  0  0  0  0  0  0
   55.0918   38.8491   -8.1057 O   0  0  0  0  0  0  0  0  0  0  0  0
   61.4772   34.0899   -5.7596 H   0  0  0  0  0  0  0  0  0  0  0  0
   59.6031   38.9173   -7.7756 H   0  0  0  0  0  0  0  0  0  0  0  0
   54.1652   38.6252   -7.9168 H   0  0  0  0  0  0  0  0  0  0  0  0
   53.1920   36.5592   -6.2368 C   0  0  0  0  0  0  0  0  0  0  0  0
   51.8467   36.1770   -6.2507 C   0  0  0  0  0  0  0  0  0  0  0  0
   51.3561   35.4769   -7.3447 C   0  0  0  0  0  0  0  0  0  0  0  0
   52.1917   35.1700   -8.4163 C   0  0  0  0  0  0  0  0  0  0  0  0
   53.5290   35.5448   -8.4120 C   0  0  0  0  0  0  0  0  0  0  0  0
   54.0448   36.2352   -7.3089 C   0  0  0  0  0  0  0  0  0  0  0  0
   51.6980   34.4834   -9.4884 O   0  0  0  0  0  0  0  0  0  0  0  0
   50.0553   35.0638   -7.4148 O   0  0  0  0  0  0  0  0  0  0  0  0
   50.7543   34.3365   -9.2765 H   0  0  0  0  0  0  0  0  0  0  0  0
   49.6004   35.3418   -6.6009 H   0  0  0  0  0  0  0  0  0  0  0  0
 18 19  2  0  0  0
 19 20  1  0  0  0
 20 21  2  0  0  0
 21 22  1  0  0  0
 22 23  2  0  0  0
 18 23  1  0  0  0
 23  1  1  0  0  0
  1  2  2  0  0  0
  2  3  1  0  0  0
  3  4  2  0  0  0
  3  5  1  0  0  0
  5  6  2  0  0  0
  6  7  1  0  0  0
  7  8  2  0  0  0
  8  9  1  0  0  0
  9 10  2  0  0  0
  5 10  1  0  0  0
 10 11  1  0  0  0
  1 11  1  0  0  0
  8 12  1  0  0  0
  6 13  1  0  0  0
  2 14  1  0  0  0
 21 24  1  0  0  0
 20 25  1  0  0  0
 12 15  1  0  0  0
 13 16  1  0  0  0
 14 17  1  0  0  0
 24 26  1  0  0  0
 25 27  1  0  0  0
M  END
> <minimizedAffinity>
-7.61484

$$$$
