Quercetin


 27 29  0  0  0  0  0  0  0  0999 V2000
   50.3812   12.5962    7.3641 C   0  0  0  0  0  0  0  0  0  0  0  0
   50.7579   11.4821    6.7038 C   0  0  0  0  0  0  0  0  0  0  0  0
   50.2149   11.2690    5.3350 C   0  0  0  0  0  0  0  0  0  0  0  0
   50.5081   10.2976    4.6417 O   0  0  0  0  0  0  0  0  0  0  0  0
   49.2909   12.2831    4.8145 C   0  0  0  0  0  0  0  0  0  0  0  0
   48.7334   12.1779    3.5342 C   0  0  0  0  0  0  0  0  0  0  0  0
   47.8563   13.1528    3.0655 C   0  0  0  0  0  0  0  0  0  0  0  0
   47.5403   14.2305    3.8875 C   0  0  0  0  0  0  0  0  0  0  0  0
   48.0889   14.3466    5.1621 C   0  0  0  0  0  0  0  0  0  0  0  0
   48.9703   13.3688    5.6241 C   0  0  0  0  0  0  0  0  0  0  0  0
   49.4899   13.5400    6.8812 O   0  0  0  0  0  0  0  0  0  0  0  0
   46.6864   15.2095    3.4733 O   0  0  0  0  0  0  0  0  0  0  0  0
   49.0085   11.1403    2.6838 O   0  0  0  0  0  0  0  0  0  0  0  0
   51.6138   10.5178    7.2067 O   0  0  0  0  0  0  0  0  0  0  0  0
   46.3835   15.0011    2.5729 H   0  0  0  0  0  0  0  0  0  0  0  0
   49.6312   10.5278    3.1403 H   0  0  0  0  0  0  0  0  0  0  0  0
   51.7555   10.6795    8.1544 H   0  0  0  0  0  0  0  0  0  0  0  0
   52.1958   13.4510    8.8564 C   0  0  0  0  0  0  0  0  0  0  0  0
   52.7075   13.7360   10.1265 C   0  0  0  0  0  0  0  0  0  0  0  0
   51.9126   13.5043   11.2410 C   0  0  0  0  0  0  0  0  0  0  0  0
   50.6207   13.0049   11.0925 C   0  0  0  0  0  0  0  0  0  0  0  0
   50.1033   12.7186    9.8359 C   0  0  0  0  0  0  0  0  0  0  0  0
   50.8976   12.9289    8.7025 C   0  0  0  0  0  0  0  0  0  0  0  0
   49.8465   12.7833   12.1955 O   0  0  0  0  0  0  0  0  0  0  0  0
   52.3570   13.7498   12.5099 O   0  0  0  0  0  0  0  0  0  0  0  0
   50.4050   13.0577   12.9504 H   0  0  0  0  0  0  0  0  0  0  0  0
   53.2685   14.0859   12.4564 H   0  0  0  0  0  0  0  0  0  0  0  0
 18 19  2  0  0  0
 19 20  1  0  0  0
 20 21  2  0  0  0
 21 22  1  0  0  0
 22 23  2  0  0  0
 18 23  1  0  0  0
 23  1  1  0  0  0
  1  2  2  0  0  0
  2  3  1  0  0  0
  3  4  2  0  0  0
  3  5  1  0  0  0
  5  6  2  0  0  0
  6  7  1  0  0  0
  7  8  2  0  0  0
  8  9  1  0  0  0
  9 10  2  0  0  0
  5 10  1  0  0  0
 10 11  1  0  0  0
  1 11  1  0  0  0
  8 12  1  0  0  0
  6 13  1  0  0  0
  2 14  1  0  0  0
 21 24  1  0  0  0
 20 25  1  0  0  0
 12 15  1  0  0  0
 13 16  1  0  0  0
 14 17  1  0  0  0
 24 26  1  0  0  0
 25 27  1  0  0  0
M  END
> <minimizedAffinity>
-7.35796

$$$$
Quercetin


 27 29  0  0  0  0  0  0  0  0999 V2000
   49.5893   11.8772    4.7051 C   0  0  0  0  0  0  0  0  0  0  0  0
   49.7617   10.6185    4.2523 C   0  0  0  0  0  0  0  0  0  0  0  0
   50.7309    9.7483    4.9714 C   0  0  0  0  0  0  0  0  0  0  0  0
   50.9490    8.5818    4.6521 O   0  0  0  0  0  0  0  0  0  0  0  0
   51.4426   10.3366    6.1118 C   0  0  0  0  0  0  0  0  0  0  0  0
   52.3677    9.5967    6.8586 C   0  0  0  0  0  0  0  0  0  0  0  0
   53.0321   10.1801    7.9345 C   0  0  0  0  0  0  0  0  0  0  0  0
   52.7658   11.5080    8.2550 C   0  0  0  0  0  0  0  0  0  0  0  0
   51.8475   12.2537    7.5204 C   0  0  0  0  0  0  0  0  0  0  0  0
   51.1819   11.6621    6.4465 C   0  0  0  0  0  0  0  0  0  0  0  0
   50.2797   12.4388    5.7664 O   0  0  0  0  0  0  0  0  0  0  0  0
   53.3915   12.1229    9.2988 O   0  0  0  0  0  0  0  0  0  0  0  0
   52.6685    8.2883    6.5884 O   0  0  0  0  0  0  0  0  0  0  0  0
   49.1031   10.0742    3.1635 O   0  0  0  0  0  0  0  0  0  0  0  0
   53.9989   11.4893    9.7176 H   0  0  0  0  0  0  0  0  0  0  0  0
   52.1368    8.0074    5.8076 H   0  0  0  0  0  0  0  0  0  0  0  0
   48.6413   10.7816    2.6832 H   0  0  0  0  0  0  0  0  0  0  0  0
   48.1994   13.9534    4.7952 C   0  0  0  0  0  0  0  0  0  0  0  0
   47.2519   14.8206    4.2417 C   0  0  0  0  0  0  0  0  0  0  0  0
   46.7327   14.5385    2.9853 C   0  0  0  0  0  0  0  0  0  0  0  0
   47.1590   13.4128    2.2841 C   0  0  0  0  0  0  0  0  0  0  0  0
   48.0992   12.5455    2.8250 C   0  0  0  0  0  0  0  0  0  0  0  0
   48.6196   12.8047    4.0984 C   0  0  0  0  0  0  0  0  0  0  0  0
   46.6436   13.1464    1.0479 O   0  0  0  0  0  0  0  0  0  0  0  0
   45.7953   15.3382    2.3940 O   0  0  0  0  0  0  0  0  0  0  0  0
   46.0202   13.8803    0.8749 H   0  0  0  0  0  0  0  0  0  0  0  0
   45.5936   16.0735    2.9983 H   0  0  0  0  0  0  0  0  0  0  0  0
 18 19  2  0  0  0
 19 20  1  0  0  0
 20 21  2  0  0  0
 21 22  1  0  0  0
 22 23  2  0  0  0
 18 23  1  0  0  0
 23  1  1  0  0  0
  1  2  2  0  0  0
  2  3  1  0  0  0
  3  4  2  0  0  0
  3  5  1  0  0  0
  5  6  2  0  0  0
  6  7  1  0  0  0
  7  8  2  0  0  0
  8  9  1  0  0  0
  9 10  2  0  0  0
  5 10  1  0  0  0
 10 11  1  0  0  0
  1 11  1  0  0  0
  8 12  1  0  0  0
  6 13  1  0  0  0
  2 14  1  0  0  0
 21 24  1  0  0  0
 20 25  1  0  0  0
 12 15  1  0  0  0
 13 16  1  0  0  0
 14 17  1  0  0  0
 24 26  1  0  0  0
 25 27  1  0  0  0
M  END
> <minimizedAffinity>
-6.59861

$$$$
Quercetin


 27 29  0  0  0  0  0  0  0  0999 V2000
   50.1717   12.4671    6.9307 C   0  0  0  0  0  0  0  0  0  0  0  0
   50.7849   11.3051    6.6265 C   0  0  0  0  0  0  0  0  0  0  0  0
   51.6341   10.6733    7.6723 C   0  0  0  0  0  0  0  0  0  0  0  0
   52.2216    9.6071    7.5044 O   0  0  0  0  0  0  0  0  0  0  0  0
   51.7551   11.3777    8.9539 C   0  0  0  0  0  0  0  0  0  0  0  0
   52.5233   10.8606   10.0042 C   0  0  0  0  0  0  0  0  0  0  0  0
   52.6242   11.5509   11.2095 C   0  0  0  0  0  0  0  0  0  0  0  0
   51.9535   12.7618   11.3541 C   0  0  0  0  0  0  0  0  0  0  0  0
   51.1858   13.2858   10.3172 C   0  0  0  0  0  0  0  0  0  0  0  0
   51.0852   12.5872    9.1138 C   0  0  0  0  0  0  0  0  0  0  0  0
   50.3064   13.1432    8.1320 O   0  0  0  0  0  0  0  0  0  0  0  0
   52.0223   13.4744   12.5145 O   0  0  0  0  0  0  0  0  0  0  0  0
   53.2038    9.6753    9.9174 O   0  0  0  0  0  0  0  0  0  0  0  0
   50.6843   10.6545    5.4091 O   0  0  0  0  0  0  0  0  0  0  0  0
   52.5866   12.9941   13.1445 H   0  0  0  0  0  0  0  0  0  0  0  0
   53.0511    9.3003    9.0189 H   0  0  0  0  0  0  0  0  0  0  0  0
   50.2554   11.2440    4.7665 H   0  0  0  0  0  0  0  0  0  0  0  0
   48.9020   12.5319    4.7779 C   0  0  0  0  0  0  0  0  0  0  0  0
   48.0755   13.1882    3.8602 C   0  0  0  0  0  0  0  0  0  0  0  0
   47.6125   14.4621    4.1610 C   0  0  0  0  0  0  0  0  0  0  0  0
   47.9593   15.0710    5.3649 C   0  0  0  0  0  0  0  0  0  0  0  0
   48.7795   14.4278    6.2828 C   0  0  0  0  0  0  0  0  0  0  0  0
   49.2703   13.1504    5.9876 C   0  0  0  0  0  0  0  0  0  0  0  0
   47.4960   16.3231    5.6518 O   0  0  0  0  0  0  0  0  0  0  0  0
   46.8123   15.1622    3.3023 O   0  0  0  0  0  0  0  0  0  0  0  0
   46.9456   16.5673    4.8807 H   0  0  0  0  0  0  0  0  0  0  0  0
   46.6617   14.6179    2.5100 H   0  0  0  0  0  0  0  0  0  0  0  0
 18 19  2  0  0  0
 19 20  1  0  0  0
 20 21  2  0  0  0
 21 22  1  0  0  0
 22 23  2  0  0  0
 18 23  1  0  0  0
 23  1  1  0  0  0
  1  2  2  0  0  0
  2  3  1  0  0  0
  3  4  2  0  0  0
  3  5  1  0  0  0
  5  6  2  0  0  0
  6  7  1  0  0  0
  7  8  2  0  0  0
  8  9  1  0  0  0
  9 10  2  0  0  0
  5 10  1  0  0  0
 10 11  1  0  0  0
  1 11  1  0  0  0
  8 12  1  0  0  0
  6 13  1  0  0  0
  2 14  1  0  0  0
 21 24  1  0  0  0
 20 25  1  0  0  0
 12 15  1  0  0  0
 13 16  1  0  0  0
 14 17  1  0  0  0
 24 26  1  0  0  0
 25 27  1  0  0  0
M  END
> <minimizedAffinity>
-6.58091

$$$$
Quercetin


 27 29  0  0  0  0  0  0  0  0999 V2000
   50.2109   12.6390    7.7770 C   0  0  0  0  0  0  0  0  0  0  0  0
   51.4341   12.9088    8.2770 C   0  0  0  0  0  0  0  0  0  0  0  0
   51.5541   13.1153    9.7456 C   0  0  0  0  0  0  0  0  0  0  0  0
   52.6235   13.3483   10.3042 O   0  0  0  0  0  0  0  0  0  0  0  0
   50.3221   13.0286   10.5380 C   0  0  0  0  0  0  0  0  0  0  0  0
   50.3317   13.1987   11.9279 C   0  0  0  0  0  0  0  0  0  0  0  0
   49.1476   13.1146   12.6561 C   0  0  0  0  0  0  0  0  0  0  0  0
   47.9558   12.8619   11.9833 C   0  0  0  0  0  0  0  0  0  0  0  0
   47.9336   12.6901   10.6015 C   0  0  0  0  0  0  0  0  0  0  0  0
   49.1239   12.7712    9.8784 C   0  0  0  0  0  0  0  0  0  0  0  0
   49.0452   12.5817    8.5228 O   0  0  0  0  0  0  0  0  0  0  0  0
   46.7712   12.7713   12.6524 O   0  0  0  0  0  0  0  0  0  0  0  0
   51.4737   13.4492   12.6409 O   0  0  0  0  0  0  0  0  0  0  0  0
   52.5903   13.0099    7.5231 O   0  0  0  0  0  0  0  0  0  0  0  0
   46.9354   12.9103   13.6009 H   0  0  0  0  0  0  0  0  0  0  0  0
   52.2274   13.4881   12.0070 H   0  0  0  0  0  0  0  0  0  0  0  0
   52.3560   13.0304    6.5802 H   0  0  0  0  0  0  0  0  0  0  0  0
   49.5366   13.3905    5.4898 C   0  0  0  0  0  0  0  0  0  0  0  0
   49.2885   13.1340    4.1375 C   0  0  0  0  0  0  0  0  0  0  0  0
   49.5022   11.8540    3.6439 C   0  0  0  0  0  0  0  0  0  0  0  0
   49.9671   10.8444    4.4837 C   0  0  0  0  0  0  0  0  0  0  0  0
   50.2163   11.0888    5.8279 C   0  0  0  0  0  0  0  0  0  0  0  0
   49.9887   12.3690    6.3464 C   0  0  0  0  0  0  0  0  0  0  0  0
   50.1765    9.5897    3.9870 O   0  0  0  0  0  0  0  0  0  0  0  0
   49.2674   11.5347    2.3360 O   0  0  0  0  0  0  0  0  0  0  0  0
   49.9457    9.6559    3.0387 H   0  0  0  0  0  0  0  0  0  0  0  0
   48.9442   12.3304    1.8789 H   0  0  0  0  0  0  0  0  0  0  0  0
 18 19  2  0  0  0
 19 20  1  0  0  0
 20 21  2  0  0  0
 21 22  1  0  0  0
 22 23  2  0  0  0
 18 23  1  0  0  0
 23  1  1  0  0  0
  1  2  2  0  0  0
  2  3  1  0  0  0
  3  4  2  0  0  0
  3  5  1  0  0  0
  5  6  2  0  0  0
  6  7  1  0  0  0
  7  8  2  0  0  0
  8  9  1  0  0  0
  9 10  2  0  0  0
  5 10  1  0  0  0
 10 11  1  0  0  0
  1 11  1  0  0  0
  8 12  1  0  0  0
  6 13  1  0  0  0
  2 14  1  0  0  0
 21 24  1  0  0  0
 20 25  1  0  0  0
 12 15  1  0  0  0
 13 16  1  0  0  0
 14 17  1  0  0  0
 24 26  1  0  0  0
 25 27  1  0  0  0
M  END
> <minimizedAffinity>
-6.51791

$$$$
Quercetin


 27 29  0  0  0  0  0  0  0  0999 V2000
   49.4375   12.8536    7.8716 C   0  0  0  0  0  0  0  0  0  0  0  0
   48.3692   13.6269    8.1540 C   0  0  0  0  0  0  0  0  0  0  0  0
   47.4762   14.0155    7.0291 C   0  0  0  0  0  0  0  0  0  0  0  0
   46.4680   14.7016    7.1802 O   0  0  0  0  0  0  0  0  0  0  0  0
   47.8404   13.5411    5.6890 C   0  0  0  0  0  0  0  0  0  0  0  0
   47.0596   13.8454    4.5671 C   0  0  0  0  0  0  0  0  0  0  0  0
   47.4294   13.3854    3.3058 C   0  0  0  0  0  0  0  0  0  0  0  0
   48.5858   12.6220    3.1760 C   0  0  0  0  0  0  0  0  0  0  0  0
   49.3700   12.3121    4.2842 C   0  0  0  0  0  0  0  0  0  0  0  0
   48.9916   12.7723    5.5458 C   0  0  0  0  0  0  0  0  0  0  0  0
   49.7935   12.4271    6.6029 O   0  0  0  0  0  0  0  0  0  0  0  0
   48.9891   12.1496    1.9621 O   0  0  0  0  0  0  0  0  0  0  0  0
   45.9134   14.5917    4.6361 O   0  0  0  0  0  0  0  0  0  0  0  0
   48.0409   14.0890    9.4166 O   0  0  0  0  0  0  0  0  0  0  0  0
   48.3530   12.4394    1.2858 H   0  0  0  0  0  0  0  0  0  0  0  0
   45.7752   14.8534    5.5762 H   0  0  0  0  0  0  0  0  0  0  0  0
   48.7820   13.9188   10.0217 H   0  0  0  0  0  0  0  0  0  0  0  0
   50.4072   11.0036    9.2456 C   0  0  0  0  0  0  0  0  0  0  0  0
   51.2508   10.5418   10.2610 C   0  0  0  0  0  0  0  0  0  0  0  0
   52.0494   11.4523   10.9400 C   0  0  0  0  0  0  0  0  0  0  0  0
   52.0164   12.8041   10.6052 C   0  0  0  0  0  0  0  0  0  0  0  0
   51.1821   13.2727    9.5987 C   0  0  0  0  0  0  0  0  0  0  0  0
   50.3566   12.3713    8.9163 C   0  0  0  0  0  0  0  0  0  0  0  0
   52.8082   13.6905   11.2777 O   0  0  0  0  0  0  0  0  0  0  0  0
   52.8860   11.0681   11.9501 O   0  0  0  0  0  0  0  0  0  0  0  0
   53.3023   13.1440   11.9213 H   0  0  0  0  0  0  0  0  0  0  0  0
   52.7974   10.1070   12.0734 H   0  0  0  0  0  0  0  0  0  0  0  0
 18 19  2  0  0  0
 19 20  1  0  0  0
 20 21  2  0  0  0
 21 22  1  0  0  0
 22 23  2  0  0  0
 18 23  1  0  0  0
 23  1  1  0  0  0
  1  2  2  0  0  0
  2  3  1  0  0  0
  3  4  2  0  0  0
  3  5  1  0  0  0
  5  6  2  0  0  0
  6  7  1  0  0  0
  7  8  2  0  0  0
  8  9  1  0  0  0
  9 10  2  0  0  0
  5 10  1  0  0  0
 10 11  1  0  0  0
  1 11  1  0  0  0
  8 12  1  0  0  0
  6 13  1  0  0  0
  2 14  1  0  0  0
 21 24  1  0  0  0
 20 25  1  0  0  0
 12 15  1  0  0  0
 13 16  1  0  0  0
 14 17  1  0  0  0
 24 26  1  0  0  0
 25 27  1  0  0  0
M  END
> <minimizedAffinity>
-6.23772

$$$$
