Quercetin


 27 29  0  0  0  0  0  0  0  0999 V2000
   79.9079   22.1320   -0.7016 C   0  0  0  0  0  0  0  0  0  0  0  0
   80.7150   21.4239    0.1145 C   0  0  0  0  0  0  0  0  0  0  0  0
   80.2610   21.1951    1.5129 C   0  0  0  0  0  0  0  0  0  0  0  0
   80.9114   20.5491    2.3313 O   0  0  0  0  0  0  0  0  0  0  0  0
   78.9721   21.7779    1.9034 C   0  0  0  0  0  0  0  0  0  0  0  0
   78.4538   21.6111    3.1935 C   0  0  0  0  0  0  0  0  0  0  0  0
   77.2294   22.1775    3.5394 C   0  0  0  0  0  0  0  0  0  0  0  0
   76.5306   22.9128    2.5866 C   0  0  0  0  0  0  0  0  0  0  0  0
   77.0353   23.0849    1.3002 C   0  0  0  0  0  0  0  0  0  0  0  0
   78.2603   22.5112    0.9587 C   0  0  0  0  0  0  0  0  0  0  0  0
   78.7032   22.7022   -0.3246 O   0  0  0  0  0  0  0  0  0  0  0  0
   75.3286   23.4868    2.8780 O   0  0  0  0  0  0  0  0  0  0  0  0
   79.0977   20.8987    4.1699 O   0  0  0  0  0  0  0  0  0  0  0  0
   81.9396   20.8934   -0.2523 O   0  0  0  0  0  0  0  0  0  0  0  0
   75.1011   23.2863    3.8021 H   0  0  0  0  0  0  0  0  0  0  0  0
   79.9447   20.5624    3.7946 H   0  0  0  0  0  0  0  0  0  0  0  0
   82.1981   21.2547   -1.1166 H   0  0  0  0  0  0  0  0  0  0  0  0
   80.3091   23.6874   -2.6174 C   0  0  0  0  0  0  0  0  0  0  0  0
   80.5860   23.9252   -3.9675 C   0  0  0  0  0  0  0  0  0  0  0  0
   80.7990   22.8442   -4.8125 C   0  0  0  0  0  0  0  0  0  0  0  0
   80.7473   21.5432   -4.3175 C   0  0  0  0  0  0  0  0  0  0  0  0
   80.4729   21.2965   -2.9786 C   0  0  0  0  0  0  0  0  0  0  0  0
   80.2375   22.3739   -2.1164 C   0  0  0  0  0  0  0  0  0  0  0  0
   80.9610   20.4875   -5.1569 O   0  0  0  0  0  0  0  0  0  0  0  0
   81.0616   23.0077   -6.1437 O   0  0  0  0  0  0  0  0  0  0  0  0
   81.1378   20.8947   -6.0287 H   0  0  0  0  0  0  0  0  0  0  0  0
   81.0601   23.9601   -6.3424 H   0  0  0  0  0  0  0  0  0  0  0  0
 18 19  2  0  0  0
 19 20  1  0  0  0
 20 21  2  0  0  0
 21 22  1  0  0  0
 22 23  2  0  0  0
 18 23  1  0  0  0
 23  1  1  0  0  0
  1  2  2  0  0  0
  2  3  1  0  0  0
  3  4  2  0  0  0
  3  5  1  0  0  0
  5  6  2  0  0  0
  6  7  1  0  0  0
  7  8  2  0  0  0
  8  9  1  0  0  0
  9 10  2  0  0  0
  5 10  1  0  0  0
 10 11  1  0  0  0
  1 11  1  0  0  0
  8 12  1  0  0  0
  6 13  1  0  0  0
  2 14  1  0  0  0
 21 24  1  0  0  0
 20 25  1  0  0  0
 12 15  1  0  0  0
 13 16  1  0  0  0
 14 17  1  0  0  0
 24 26  1  0  0  0
 25 27  1  0  0  0
M  END
> <minimizedAffinity>
-8.28436

$$$$
Quercetin


 27 29  0  0  0  0  0  0  0  0999 V2000
   77.9459   22.4652    0.8904 C   0  0  0  0  0  0  0  0  0  0  0  0
   77.8518   23.7777    0.5948 C   0  0  0  0  0  0  0  0  0  0  0  0
   78.5210   24.2607   -0.6432 C   0  0  0  0  0  0  0  0  0  0  0  0
   78.4816   25.4319   -1.0128 O   0  0  0  0  0  0  0  0  0  0  0  0
   79.2525   23.2695   -1.4405 C   0  0  0  0  0  0  0  0  0  0  0  0
   79.9078   23.6228   -2.6266 C   0  0  0  0  0  0  0  0  0  0  0  0
   80.5978   22.6631   -3.3630 C   0  0  0  0  0  0  0  0  0  0  0  0
   80.6288   21.3500   -2.9026 C   0  0  0  0  0  0  0  0  0  0  0  0
   79.9805   20.9863   -1.7251 C   0  0  0  0  0  0  0  0  0  0  0  0
   79.2872   21.9516   -0.9943 C   0  0  0  0  0  0  0  0  0  0  0  0
   78.6572   21.5355    0.1500 O   0  0  0  0  0  0  0  0  0  0  0  0
   81.2916   20.3755   -3.5883 O   0  0  0  0  0  0  0  0  0  0  0  0
   79.9104   24.8979   -3.1260 O   0  0  0  0  0  0  0  0  0  0  0  0
   77.1778   24.7129    1.3607 O   0  0  0  0  0  0  0  0  0  0  0  0
   81.6928   20.7684   -4.3824 H   0  0  0  0  0  0  0  0  0  0  0  0
   79.3956   25.4688   -2.5092 H   0  0  0  0  0  0  0  0  0  0  0  0
   76.9403   24.3149    2.2148 H   0  0  0  0  0  0  0  0  0  0  0  0
   77.9794   20.9957    2.9128 C   0  0  0  0  0  0  0  0  0  0  0  0
   77.3447   20.4017    4.0084 C   0  0  0  0  0  0  0  0  0  0  0  0
   76.0106   20.6962    4.2557 C   0  0  0  0  0  0  0  0  0  0  0  0
   75.3197   21.5790    3.4288 C   0  0  0  0  0  0  0  0  0  0  0  0
   75.9408   22.1739    2.3383 C   0  0  0  0  0  0  0  0  0  0  0  0
   77.2803   21.8741    2.0635 C   0  0  0  0  0  0  0  0  0  0  0  0
   74.0085   21.8636    3.6829 O   0  0  0  0  0  0  0  0  0  0  0  0
   75.3291   20.1401    5.3017 O   0  0  0  0  0  0  0  0  0  0  0  0
   73.7928   21.3470    4.4851 H   0  0  0  0  0  0  0  0  0  0  0  0
   75.9331   19.5468    5.7811 H   0  0  0  0  0  0  0  0  0  0  0  0
 18 19  2  0  0  0
 19 20  1  0  0  0
 20 21  2  0  0  0
 21 22  1  0  0  0
 22 23  2  0  0  0
 18 23  1  0  0  0
 23  1  1  0  0  0
  1  2  2  0  0  0
  2  3  1  0  0  0
  3  4  2  0  0  0
  3  5  1  0  0  0
  5  6  2  0  0  0
  6  7  1  0  0  0
  7  8  2  0  0  0
  8  9  1  0  0  0
  9 10  2  0  0  0
  5 10  1  0  0  0
 10 11  1  0  0  0
  1 11  1  0  0  0
  8 12  1  0  0  0
  6 13  1  0  0  0
  2 14  1  0  0  0
 21 24  1  0  0  0
 20 25  1  0  0  0
 12 15  1  0  0  0
 13 16  1  0  0  0
 14 17  1  0  0  0
 24 26  1  0  0  0
 25 27  1  0  0  0
M  END
> <minimizedAffinity>
-7.71462

$$$$
Quercetin


 27 29  0  0  0  0  0  0  0  0999 V2000
   79.7770   21.7175   -1.1980 C   0  0  0  0  0  0  0  0  0  0  0  0
   79.7477   20.5648   -1.8975 C   0  0  0  0  0  0  0  0  0  0  0  0
   80.1184   20.6167   -3.3376 C   0  0  0  0  0  0  0  0  0  0  0  0
   80.1416   19.6226   -4.0596 O   0  0  0  0  0  0  0  0  0  0  0  0
   80.4698   21.9287   -3.8929 C   0  0  0  0  0  0  0  0  0  0  0  0
   80.8414   22.0805   -5.2345 C   0  0  0  0  0  0  0  0  0  0  0  0
   81.1671   23.3377   -5.7373 C   0  0  0  0  0  0  0  0  0  0  0  0
   81.1156   24.4399   -4.8892 C   0  0  0  0  0  0  0  0  0  0  0  0
   80.7482   24.3015   -3.5531 C   0  0  0  0  0  0  0  0  0  0  0  0
   80.4275   23.0387   -3.0545 C   0  0  0  0  0  0  0  0  0  0  0  0
   80.0851   22.9590   -1.7293 O   0  0  0  0  0  0  0  0  0  0  0  0
   81.4248   25.6908   -5.3353 O   0  0  0  0  0  0  0  0  0  0  0  0
   80.9090   21.0322   -6.1130 O   0  0  0  0  0  0  0  0  0  0  0  0
   79.3958   19.3328   -1.3745 O   0  0  0  0  0  0  0  0  0  0  0  0
   81.6611   25.6383   -6.2772 H   0  0  0  0  0  0  0  0  0  0  0  0
   80.6504   20.2123   -5.6310 H   0  0  0  0  0  0  0  0  0  0  0  0
   79.0125   19.4588   -0.4904 H   0  0  0  0  0  0  0  0  0  0  0  0
   80.4311   21.3442    1.1860 C   0  0  0  0  0  0  0  0  0  0  0  0
   80.1414   21.3569    2.5542 C   0  0  0  0  0  0  0  0  0  0  0  0
   78.8967   21.8052    2.9755 C   0  0  0  0  0  0  0  0  0  0  0  0
   77.9559   22.2451    2.0472 C   0  0  0  0  0  0  0  0  0  0  0  0
   78.2337   22.2362    0.6865 C   0  0  0  0  0  0  0  0  0  0  0  0
   79.4769   21.7702    0.2428 C   0  0  0  0  0  0  0  0  0  0  0  0
   76.7357   22.6864    2.4729 O   0  0  0  0  0  0  0  0  0  0  0  0
   78.5465   21.8313    4.2963 O   0  0  0  0  0  0  0  0  0  0  0  0
   76.7696   22.6096    3.4475 H   0  0  0  0  0  0  0  0  0  0  0  0
   79.2941   21.4929    4.8190 H   0  0  0  0  0  0  0  0  0  0  0  0
 18 19  2  0  0  0
 19 20  1  0  0  0
 20 21  2  0  0  0
 21 22  1  0  0  0
 22 23  2  0  0  0
 18 23  1  0  0  0
 23  1  1  0  0  0
  1  2  2  0  0  0
  2  3  1  0  0  0
  3  4  2  0  0  0
  3  5  1  0  0  0
  5  6  2  0  0  0
  6  7  1  0  0  0
  7  8  2  0  0  0
  8  9  1  0  0  0
  9 10  2  0  0  0
  5 10  1  0  0  0
 10 11  1  0  0  0
  1 11  1  0  0  0
  8 12  1  0  0  0
  6 13  1  0  0  0
  2 14  1  0  0  0
 21 24  1  0  0  0
 20 25  1  0  0  0
 12 15  1  0  0  0
 13 16  1  0  0  0
 14 17  1  0  0  0
 24 26  1  0  0  0
 25 27  1  0  0  0
M  END
> <minimizedAffinity>
-7.47569

$$$$
Quercetin


 27 29  0  0  0  0  0  0  0  0999 V2000
   78.9785   22.4196    0.0228 C   0  0  0  0  0  0  0  0  0  0  0  0
   77.7669   22.9469    0.2925 C   0  0  0  0  0  0  0  0  0  0  0  0
   77.2531   22.8310    1.6841 C   0  0  0  0  0  0  0  0  0  0  0  0
   76.1708   23.2922    2.0393 O   0  0  0  0  0  0  0  0  0  0  0  0
   78.1006   22.1305    2.6558 C   0  0  0  0  0  0  0  0  0  0  0  0
   77.7101   21.9771    3.9919 C   0  0  0  0  0  0  0  0  0  0  0  0
   78.5319   21.3050    4.8932 C   0  0  0  0  0  0  0  0  0  0  0  0
   79.7439   20.7865    4.4472 C   0  0  0  0  0  0  0  0  0  0  0  0
   80.1435   20.9333    3.1213 C   0  0  0  0  0  0  0  0  0  0  0  0
   79.3177   21.6115    2.2244 C   0  0  0  0  0  0  0  0  0  0  0  0
   79.7664   21.7372    0.9350 O   0  0  0  0  0  0  0  0  0  0  0  0
   80.5819   20.1202    5.2917 O   0  0  0  0  0  0  0  0  0  0  0  0
   76.5298   22.4662    4.4849 O   0  0  0  0  0  0  0  0  0  0  0  0
   76.9618   23.5890   -0.6322 O   0  0  0  0  0  0  0  0  0  0  0  0
   80.1794   20.0940    6.1767 H   0  0  0  0  0  0  0  0  0  0  0  0
   76.0500   22.9086    3.7464 H   0  0  0  0  0  0  0  0  0  0  0  0
   77.3223   23.4461   -1.5232 H   0  0  0  0  0  0  0  0  0  0  0  0
   79.7395   23.7744   -1.9357 C   0  0  0  0  0  0  0  0  0  0  0  0
   80.2974   23.8771   -3.2141 C   0  0  0  0  0  0  0  0  0  0  0  0
   80.7243   22.7235   -3.8580 C   0  0  0  0  0  0  0  0  0  0  0  0
   80.6069   21.4842   -3.2328 C   0  0  0  0  0  0  0  0  0  0  0  0
   80.0543   21.3715   -1.9637 C   0  0  0  0  0  0  0  0  0  0  0  0
   79.6018   22.5223   -1.3075 C   0  0  0  0  0  0  0  0  0  0  0  0
   81.0326   20.3562   -3.8742 O   0  0  0  0  0  0  0  0  0  0  0  0
   81.2664   22.7537   -5.1122 O   0  0  0  0  0  0  0  0  0  0  0  0
   81.3828   20.6742   -4.7305 H   0  0  0  0  0  0  0  0  0  0  0  0
   81.2782   23.6768   -5.4195 H   0  0  0  0  0  0  0  0  0  0  0  0
 18 19  2  0  0  0
 19 20  1  0  0  0
 20 21  2  0  0  0
 21 22  1  0  0  0
 22 23  2  0  0  0
 18 23  1  0  0  0
 23  1  1  0  0  0
  1  2  2  0  0  0
  2  3  1  0  0  0
  3  4  2  0  0  0
  3  5  1  0  0  0
  5  6  2  0  0  0
  6  7  1  0  0  0
  7  8  2  0  0  0
  8  9  1  0  0  0
  9 10  2  0  0  0
  5 10  1  0  0  0
 10 11  1  0  0  0
  1 11  1  0  0  0
  8 12  1  0  0  0
  6 13  1  0  0  0
  2 14  1  0  0  0
 21 24  1  0  0  0
 20 25  1  0  0  0
 12 15  1  0  0  0
 13 16  1  0  0  0
 14 17  1  0  0  0
 24 26  1  0  0  0
 25 27  1  0  0  0
M  END
> <minimizedAffinity>
-7.43390

$$$$
Quercetin


 27 29  0  0  0  0  0  0  0  0999 V2000
   81.5115   21.2503   -0.7406 C   0  0  0  0  0  0  0  0  0  0  0  0
   81.8669   22.5391   -0.5625 C   0  0  0  0  0  0  0  0  0  0  0  0
   81.7041   23.4697   -1.7119 C   0  0  0  0  0  0  0  0  0  0  0  0
   81.9806   24.6655   -1.6502 O   0  0  0  0  0  0  0  0  0  0  0  0
   81.1852   22.9057   -2.9633 C   0  0  0  0  0  0  0  0  0  0  0  0
   80.9876   23.7011   -4.0987 C   0  0  0  0  0  0  0  0  0  0  0  0
   80.4969   23.1401   -5.2751 C   0  0  0  0  0  0  0  0  0  0  0  0
   80.2084   21.7790   -5.3069 C   0  0  0  0  0  0  0  0  0  0  0  0
   80.4000   20.9779   -4.1841 C   0  0  0  0  0  0  0  0  0  0  0  0
   80.8877   21.5469   -3.0073 C   0  0  0  0  0  0  0  0  0  0  0  0
   81.0450   20.7143   -1.9295 O   0  0  0  0  0  0  0  0  0  0  0  0
   79.7268   21.1841   -6.4353 O   0  0  0  0  0  0  0  0  0  0  0  0
   81.2543   25.0441   -4.1243 O   0  0  0  0  0  0  0  0  0  0  0  0
   82.3752   23.0624    0.6136 O   0  0  0  0  0  0  0  0  0  0  0  0
   79.6433   21.8565   -7.1330 H   0  0  0  0  0  0  0  0  0  0  0  0
   81.5970   25.3046   -3.2378 H   0  0  0  0  0  0  0  0  0  0  0  0
   82.5952   22.3343    1.2184 H   0  0  0  0  0  0  0  0  0  0  0  0
   82.5578   19.2404    0.3158 C   0  0  0  0  0  0  0  0  0  0  0  0
   82.6120   18.2722    1.3237 C   0  0  0  0  0  0  0  0  0  0  0  0
   81.6949   18.3304    2.3644 C   0  0  0  0  0  0  0  0  0  0  0  0
   80.7422   19.3459    2.4070 C   0  0  0  0  0  0  0  0  0  0  0  0
   80.6799   20.3119    1.4111 C   0  0  0  0  0  0  0  0  0  0  0  0
   81.5852   20.2576    0.3447 C   0  0  0  0  0  0  0  0  0  0  0  0
   79.8467   19.3952    3.4367 O   0  0  0  0  0  0  0  0  0  0  0  0
   81.6862   17.4084    3.3731 O   0  0  0  0  0  0  0  0  0  0  0  0
   80.0815   18.6358    4.0071 H   0  0  0  0  0  0  0  0  0  0  0  0
   82.3966   16.7646    3.2069 H   0  0  0  0  0  0  0  0  0  0  0  0
 18 19  2  0  0  0
 19 20  1  0  0  0
 20 21  2  0  0  0
 21 22  1  0  0  0
 22 23  2  0  0  0
 18 23  1  0  0  0
 23  1  1  0  0  0
  1  2  2  0  0  0
  2  3  1  0  0  0
  3  4  2  0  0  0
  3  5  1  0  0  0
  5  6  2  0  0  0
  6  7  1  0  0  0
  7  8  2  0  0  0
  8  9  1  0  0  0
  9 10  2  0  0  0
  5 10  1  0  0  0
 10 11  1  0  0  0
  1 11  1  0  0  0
  8 12  1  0  0  0
  6 13  1  0  0  0
  2 14  1  0  0  0
 21 24  1  0  0  0
 20 25  1  0  0  0
 12 15  1  0  0  0
 13 16  1  0  0  0
 14 17  1  0  0  0
 24 26  1  0  0  0
 25 27  1  0  0  0
M  END
> <minimizedAffinity>
-7.41941

$$$$
