Quercetin


 27 29  0  0  0  0  0  0  0  0999 V2000
   75.8371   21.6161  -20.0443 C   0  0  0  0  0  0  0  0  0  0  0  0
   75.6089   20.5176  -19.2958 C   0  0  0  0  0  0  0  0  0  0  0  0
   76.2438   19.2417  -19.7233 C   0  0  0  0  0  0  0  0  0  0  0  0
   76.1150   18.1885  -19.1033 O   0  0  0  0  0  0  0  0  0  0  0  0
   77.0573   19.2734  -20.9442 C   0  0  0  0  0  0  0  0  0  0  0  0
   77.7034   18.1273  -21.4238 C   0  0  0  0  0  0  0  0  0  0  0  0
   78.4670   18.1838  -22.5870 C   0  0  0  0  0  0  0  0  0  0  0  0
   78.5767   19.3935  -23.2665 C   0  0  0  0  0  0  0  0  0  0  0  0
   77.9396   20.5401  -22.7990 C   0  0  0  0  0  0  0  0  0  0  0  0
   77.1797   20.4778  -21.6307 C   0  0  0  0  0  0  0  0  0  0  0  0
   76.5850   21.6392  -21.2098 O   0  0  0  0  0  0  0  0  0  0  0  0
   79.3123   19.4984  -24.4097 O   0  0  0  0  0  0  0  0  0  0  0  0
   77.6301   16.9121  -20.7966 O   0  0  0  0  0  0  0  0  0  0  0  0
   74.8242   20.4879  -18.1562 O   0  0  0  0  0  0  0  0  0  0  0  0
   79.6969   18.6293  -24.6161 H   0  0  0  0  0  0  0  0  0  0  0  0
   77.0596   17.0135  -19.9994 H   0  0  0  0  0  0  0  0  0  0  0  0
   74.3337   21.3238  -18.0843 H   0  0  0  0  0  0  0  0  0  0  0  0
   74.2024   23.4771  -20.3837 C   0  0  0  0  0  0  0  0  0  0  0  0
   73.7074   24.7474  -20.0718 C   0  0  0  0  0  0  0  0  0  0  0  0
   74.3079   25.4732  -19.0518 C   0  0  0  0  0  0  0  0  0  0  0  0
   75.3811   24.9368  -18.3440 C   0  0  0  0  0  0  0  0  0  0  0  0
   75.8802   23.6764  -18.6460 C   0  0  0  0  0  0  0  0  0  0  0  0
   75.2985   22.9385  -19.6837 C   0  0  0  0  0  0  0  0  0  0  0  0
   75.9625   25.6582  -17.3408 O   0  0  0  0  0  0  0  0  0  0  0  0
   73.8805   26.7244  -18.7061 O   0  0  0  0  0  0  0  0  0  0  0  0
   75.4510   26.4914  -17.3051 H   0  0  0  0  0  0  0  0  0  0  0  0
   73.1366   26.9657  -19.2849 H   0  0  0  0  0  0  0  0  0  0  0  0
 18 19  2  0  0  0
 19 20  1  0  0  0
 20 21  2  0  0  0
 21 22  1  0  0  0
 22 23  2  0  0  0
 18 23  1  0  0  0
 23  1  1  0  0  0
  1  2  2  0  0  0
  2  3  1  0  0  0
  3  4  2  0  0  0
  3  5  1  0  0  0
  5  6  2  0  0  0
  6  7  1  0  0  0
  7  8  2  0  0  0
  8  9  1  0  0  0
  9 10  2  0  0  0
  5 10  1  0  0  0
 10 11  1  0  0  0
  1 11  1  0  0  0
  8 12  1  0  0  0
  6 13  1  0  0  0
  2 14  1  0  0  0
 21 24  1  0  0  0
 20 25  1  0  0  0
 12 15  1  0  0  0
 13 16  1  0  0  0
 14 17  1  0  0  0
 24 26  1  0  0  0
 25 27  1  0  0  0
M  END
> <minimizedAffinity>
-5.82707

$$$$
Quercetin


 27 29  0  0  0  0  0  0  0  0999 V2000
   73.6953   23.6682  -19.8606 C   0  0  0  0  0  0  0  0  0  0  0  0
   72.3995   23.5073  -20.1985 C   0  0  0  0  0  0  0  0  0  0  0  0
   71.5783   24.7308  -20.4044 C   0  0  0  0  0  0  0  0  0  0  0  0
   70.3942   24.6958  -20.7310 O   0  0  0  0  0  0  0  0  0  0  0  0
   72.2405   26.0247  -20.2033 C   0  0  0  0  0  0  0  0  0  0  0  0
   71.5561   27.2333  -20.3815 C   0  0  0  0  0  0  0  0  0  0  0  0
   72.2073   28.4479  -20.1810 C   0  0  0  0  0  0  0  0  0  0  0  0
   73.5456   28.4433  -19.7989 C   0  0  0  0  0  0  0  0  0  0  0  0
   74.2371   27.2480  -19.6193 C   0  0  0  0  0  0  0  0  0  0  0  0
   73.5801   26.0347  -19.8261 C   0  0  0  0  0  0  0  0  0  0  0  0
   74.3125   24.8896  -19.6472 O   0  0  0  0  0  0  0  0  0  0  0  0
   74.2256   29.6066  -19.5901 O   0  0  0  0  0  0  0  0  0  0  0  0
   70.2405   27.2973  -20.7562 O   0  0  0  0  0  0  0  0  0  0  0  0
   71.7738   22.2844  -20.3673 O   0  0  0  0  0  0  0  0  0  0  0  0
   73.6247   30.3542  -19.7507 H   0  0  0  0  0  0  0  0  0  0  0  0
   69.9062   26.3757  -20.8568 H   0  0  0  0  0  0  0  0  0  0  0  0
   72.3563   21.5795  -20.0386 H   0  0  0  0  0  0  0  0  0  0  0  0
   74.5447   21.7380  -18.5176 C   0  0  0  0  0  0  0  0  0  0  0  0
   75.4318   20.6744  -18.3233 C   0  0  0  0  0  0  0  0  0  0  0  0
   76.3772   20.3978  -19.3018 C   0  0  0  0  0  0  0  0  0  0  0  0
   76.4321   21.1639  -20.4639 C   0  0  0  0  0  0  0  0  0  0  0  0
   75.5560   22.2223  -20.6663 C   0  0  0  0  0  0  0  0  0  0  0  0
   74.6084   22.5267  -19.6819 C   0  0  0  0  0  0  0  0  0  0  0  0
   77.3643   20.8813  -21.4211 O   0  0  0  0  0  0  0  0  0  0  0  0
   77.2805   19.3809  -19.1678 O   0  0  0  0  0  0  0  0  0  0  0  0
   77.8536   20.1097  -21.0715 H   0  0  0  0  0  0  0  0  0  0  0  0
   77.1259   18.9435  -18.3126 H   0  0  0  0  0  0  0  0  0  0  0  0
 18 19  2  0  0  0
 19 20  1  0  0  0
 20 21  2  0  0  0
 21 22  1  0  0  0
 22 23  2  0  0  0
 18 23  1  0  0  0
 23  1  1  0  0  0
  1  2  2  0  0  0
  2  3  1  0  0  0
  3  4  2  0  0  0
  3  5  1  0  0  0
  5  6  2  0  0  0
  6  7  1  0  0  0
  7  8  2  0  0  0
  8  9  1  0  0  0
  9 10  2  0  0  0
  5 10  1  0  0  0
 10 11  1  0  0  0
  1 11  1  0  0  0
  8 12  1  0  0  0
  6 13  1  0  0  0
  2 14  1  0  0  0
 21 24  1  0  0  0
 20 25  1  0  0  0
 12 15  1  0  0  0
 13 16  1  0  0  0
 14 17  1  0  0  0
 24 26  1  0  0  0
 25 27  1  0  0  0
M  END
> <minimizedAffinity>
-5.65375

$$$$
Quercetin


 27 29  0  0  0  0  0  0  0  0999 V2000
   73.5687   25.8788  -20.4189 C   0  0  0  0  0  0  0  0  0  0  0  0
   72.3373   25.4089  -20.7048 C   0  0  0  0  0  0  0  0  0  0  0  0
   72.0553   23.9773  -20.4136 C   0  0  0  0  0  0  0  0  0  0  0  0
   70.9624   23.4544  -20.6194 O   0  0  0  0  0  0  0  0  0  0  0  0
   73.1511   23.1783  -19.8533 C   0  0  0  0  0  0  0  0  0  0  0  0
   72.9830   21.8246  -19.5367 C   0  0  0  0  0  0  0  0  0  0  0  0
   74.0405   21.0880  -19.0090 C   0  0  0  0  0  0  0  0  0  0  0  0
   75.2659   21.7150  -18.8033 C   0  0  0  0  0  0  0  0  0  0  0  0
   75.4451   23.0607  -19.1135 C   0  0  0  0  0  0  0  0  0  0  0  0
   74.3804   23.7941  -19.6378 C   0  0  0  0  0  0  0  0  0  0  0  0
   74.6094   25.1176  -19.9130 O   0  0  0  0  0  0  0  0  0  0  0  0
   76.3307   21.0356  -18.2897 O   0  0  0  0  0  0  0  0  0  0  0  0
   71.8010   21.1573  -19.7181 O   0  0  0  0  0  0  0  0  0  0  0  0
   71.3128   26.1612  -21.2524 O   0  0  0  0  0  0  0  0  0  0  0  0
   76.0642   20.1155  -18.1216 H   0  0  0  0  0  0  0  0  0  0  0  0
   71.1482   21.7899  -20.0989 H   0  0  0  0  0  0  0  0  0  0  0  0
   71.6686   27.0137  -21.5541 H   0  0  0  0  0  0  0  0  0  0  0  0
   74.6524   27.6829  -21.7686 C   0  0  0  0  0  0  0  0  0  0  0  0
   75.0384   29.0148  -21.9512 C   0  0  0  0  0  0  0  0  0  0  0  0
   74.6996   29.9532  -20.9856 C   0  0  0  0  0  0  0  0  0  0  0  0
   73.9767   29.5726  -19.8574 C   0  0  0  0  0  0  0  0  0  0  0  0
   73.5889   28.2528  -19.6666 C   0  0  0  0  0  0  0  0  0  0  0  0
   73.9378   27.2901  -20.6211 C   0  0  0  0  0  0  0  0  0  0  0  0
   73.6465   30.5044  -18.9153 O   0  0  0  0  0  0  0  0  0  0  0  0
   75.0570   31.2675  -21.0978 O   0  0  0  0  0  0  0  0  0  0  0  0
   74.0104   31.3451  -19.2587 H   0  0  0  0  0  0  0  0  0  0  0  0
   75.5570   31.3804  -21.9248 H   0  0  0  0  0  0  0  0  0  0  0  0
 18 19  2  0  0  0
 19 20  1  0  0  0
 20 21  2  0  0  0
 21 22  1  0  0  0
 22 23  2  0  0  0
 18 23  1  0  0  0
 23  1  1  0  0  0
  1  2  2  0  0  0
  2  3  1  0  0  0
  3  4  2  0  0  0
  3  5  1  0  0  0
  5  6  2  0  0  0
  6  7  1  0  0  0
  7  8  2  0  0  0
  8  9  1  0  0  0
  9 10  2  0  0  0
  5 10  1  0  0  0
 10 11  1  0  0  0
  1 11  1  0  0  0
  8 12  1  0  0  0
  6 13  1  0  0  0
  2 14  1  0  0  0
 21 24  1  0  0  0
 20 25  1  0  0  0
 12 15  1  0  0  0
 13 16  1  0  0  0
 14 17  1  0  0  0
 24 26  1  0  0  0
 25 27  1  0  0  0
M  END
> <minimizedAffinity>
-5.61866

$$$$
Quercetin


 27 29  0  0  0  0  0  0  0  0999 V2000
   74.5389   22.0292  -19.3627 C   0  0  0  0  0  0  0  0  0  0  0  0
   75.6096   21.2592  -19.6449 C   0  0  0  0  0  0  0  0  0  0  0  0
   75.4257   19.7827  -19.6329 C   0  0  0  0  0  0  0  0  0  0  0  0
   76.3304   18.9928  -19.8929 O   0  0  0  0  0  0  0  0  0  0  0  0
   74.0912   19.2757  -19.2935 C   0  0  0  0  0  0  0  0  0  0  0  0
   73.8147   17.9033  -19.2640 C   0  0  0  0  0  0  0  0  0  0  0  0
   72.5401   17.4483  -18.9355 C   0  0  0  0  0  0  0  0  0  0  0  0
   71.5470   18.3758  -18.6349 C   0  0  0  0  0  0  0  0  0  0  0  0
   71.8096   19.7431  -18.6616 C   0  0  0  0  0  0  0  0  0  0  0  0
   73.0873   20.1926  -18.9958 C   0  0  0  0  0  0  0  0  0  0  0  0
   73.2862   21.5489  -19.0186 O   0  0  0  0  0  0  0  0  0  0  0  0
   70.2844   17.9790  -18.3070 O   0  0  0  0  0  0  0  0  0  0  0  0
   74.7524   16.9471  -19.5504 O   0  0  0  0  0  0  0  0  0  0  0  0
   76.8717   21.7414  -19.9445 O   0  0  0  0  0  0  0  0  0  0  0  0
   70.2455   17.0075  -18.3284 H   0  0  0  0  0  0  0  0  0  0  0  0
   75.6009   17.4036  -19.7579 H   0  0  0  0  0  0  0  0  0  0  0  0
   76.9046   22.6929  -19.7500 H   0  0  0  0  0  0  0  0  0  0  0  0
   75.2001   24.2134  -18.3415 C   0  0  0  0  0  0  0  0  0  0  0  0
   75.2291   25.6117  -18.3471 C   0  0  0  0  0  0  0  0  0  0  0  0
   74.6611   26.2934  -19.4150 C   0  0  0  0  0  0  0  0  0  0  0  0
   74.0808   25.5918  -20.4693 C   0  0  0  0  0  0  0  0  0  0  0  0
   74.0467   24.2034  -20.4731 C   0  0  0  0  0  0  0  0  0  0  0  0
   74.5984   23.5004  -19.3955 C   0  0  0  0  0  0  0  0  0  0  0  0
   73.5274   26.2723  -21.5159 O   0  0  0  0  0  0  0  0  0  0  0  0
   74.6453   27.6586  -19.4753 O   0  0  0  0  0  0  0  0  0  0  0  0
   73.6722   27.2162  -21.3032 H   0  0  0  0  0  0  0  0  0  0  0  0
   75.0763   28.0064  -18.6754 H   0  0  0  0  0  0  0  0  0  0  0  0
 18 19  2  0  0  0
 19 20  1  0  0  0
 20 21  2  0  0  0
 21 22  1  0  0  0
 22 23  2  0  0  0
 18 23  1  0  0  0
 23  1  1  0  0  0
  1  2  2  0  0  0
  2  3  1  0  0  0
  3  4  2  0  0  0
  3  5  1  0  0  0
  5  6  2  0  0  0
  6  7  1  0  0  0
  7  8  2  0  0  0
  8  9  1  0  0  0
  9 10  2  0  0  0
  5 10  1  0  0  0
 10 11  1  0  0  0
  1 11  1  0  0  0
  8 12  1  0  0  0
  6 13  1  0  0  0
  2 14  1  0  0  0
 21 24  1  0  0  0
 20 25  1  0  0  0
 12 15  1  0  0  0
 13 16  1  0  0  0
 14 17  1  0  0  0
 24 26  1  0  0  0
 25 27  1  0  0  0
M  END
> <minimizedAffinity>
-5.59783

$$$$
Quercetin


 27 29  0  0  0  0  0  0  0  0999 V2000
   75.4011   22.0469  -19.7912 C   0  0  0  0  0  0  0  0  0  0  0  0
   74.9802   21.0406  -18.9981 C   0  0  0  0  0  0  0  0  0  0  0  0
   75.5228   19.6794  -19.2562 C   0  0  0  0  0  0  0  0  0  0  0  0
   75.2189   18.6980  -18.5819 O   0  0  0  0  0  0  0  0  0  0  0  0
   76.4639   19.5331  -20.3725 C   0  0  0  0  0  0  0  0  0  0  0  0
   77.0367   18.2953  -20.6902 C   0  0  0  0  0  0  0  0  0  0  0  0
   77.9247   18.1831  -21.7570 C   0  0  0  0  0  0  0  0  0  0  0  0
   78.2324   19.3166  -22.5036 C   0  0  0  0  0  0  0  0  0  0  0  0
   77.6698   20.5530  -22.1970 C   0  0  0  0  0  0  0  0  0  0  0  0
   76.7844   20.6596  -21.1242 C   0  0  0  0  0  0  0  0  0  0  0  0
   76.2704   21.9029  -20.8598 O   0  0  0  0  0  0  0  0  0  0  0  0
   79.0955   19.2567  -23.5575 O   0  0  0  0  0  0  0  0  0  0  0  0
   76.7701   17.1485  -19.9907 O   0  0  0  0  0  0  0  0  0  0  0  0
   74.0766   21.1795  -17.9590 O   0  0  0  0  0  0  0  0  0  0  0  0
   79.4085   18.3411  -23.6548 H   0  0  0  0  0  0  0  0  0  0  0  0
   76.1294   17.3690  -19.2750 H   0  0  0  0  0  0  0  0  0  0  0  0
   73.6703   22.0611  -18.0048 H   0  0  0  0  0  0  0  0  0  0  0  0
   75.5144   24.2163  -18.5535 C   0  0  0  0  0  0  0  0  0  0  0  0
   75.0809   25.5278  -18.3341 C   0  0  0  0  0  0  0  0  0  0  0  0
   74.1026   26.0617  -19.1620 C   0  0  0  0  0  0  0  0  0  0  0  0
   73.5699   25.3033  -20.2019 C   0  0  0  0  0  0  0  0  0  0  0  0
   73.9934   24.0001  -20.4280 C   0  0  0  0  0  0  0  0  0  0  0  0
   74.9658   23.4396  -19.5915 C   0  0  0  0  0  0  0  0  0  0  0  0
   72.6100   25.8394  -21.0119 O   0  0  0  0  0  0  0  0  0  0  0  0
   73.6268   27.3318  -18.9934 O   0  0  0  0  0  0  0  0  0  0  0  0
   72.4796   26.7486  -20.6749 H   0  0  0  0  0  0  0  0  0  0  0  0
   74.0831   27.7323  -18.2331 H   0  0  0  0  0  0  0  0  0  0  0  0
 18 19  2  0  0  0
 19 20  1  0  0  0
 20 21  2  0  0  0
 21 22  1  0  0  0
 22 23  2  0  0  0
 18 23  1  0  0  0
 23  1  1  0  0  0
  1  2  2  0  0  0
  2  3  1  0  0  0
  3  4  2  0  0  0
  3  5  1  0  0  0
  5  6  2  0  0  0
  6  7  1  0  0  0
  7  8  2  0  0  0
  8  9  1  0  0  0
  9 10  2  0  0  0
  5 10  1  0  0  0
 10 11  1  0  0  0
  1 11  1  0  0  0
  8 12  1  0  0  0
  6 13  1  0  0  0
  2 14  1  0  0  0
 21 24  1  0  0  0
 20 25  1  0  0  0
 12 15  1  0  0  0
 13 16  1  0  0  0
 14 17  1  0  0  0
 24 26  1  0  0  0
 25 27  1  0  0  0
M  END
> <minimizedAffinity>
-5.58547

$$$$
