Quercetin


 27 29  0  0  0  0  0  0  0  0999 V2000
   66.6675   29.8323   15.4690 C   0  0  0  0  0  0  0  0  0  0  0  0
   65.7413   30.0346   14.5096 C   0  0  0  0  0  0  0  0  0  0  0  0
   65.6420   29.0296   13.4170 C   0  0  0  0  0  0  0  0  0  0  0  0
   64.8219   29.1098   12.5054 O   0  0  0  0  0  0  0  0  0  0  0  0
   66.5781   27.9003   13.4574 C   0  0  0  0  0  0  0  0  0  0  0  0
   66.5585   26.8974   12.4803 C   0  0  0  0  0  0  0  0  0  0  0  0
   67.4603   25.8378   12.5401 C   0  0  0  0  0  0  0  0  0  0  0  0
   68.3817   25.7913   13.5821 C   0  0  0  0  0  0  0  0  0  0  0  0
   68.4105   26.7823   14.5601 C   0  0  0  0  0  0  0  0  0  0  0  0
   67.5015   27.8387   14.4969 C   0  0  0  0  0  0  0  0  0  0  0  0
   67.5666   28.7790   15.4925 O   0  0  0  0  0  0  0  0  0  0  0  0
   69.2847   24.7747   13.6830 O   0  0  0  0  0  0  0  0  0  0  0  0
   65.6750   26.8925   11.4339 O   0  0  0  0  0  0  0  0  0  0  0  0
   64.8740   31.1122   14.4645 O   0  0  0  0  0  0  0  0  0  0  0  0
   69.1504   24.1611   12.9405 H   0  0  0  0  0  0  0  0  0  0  0  0
   65.1058   27.6934   11.5108 H   0  0  0  0  0  0  0  0  0  0  0  0
   65.1518   31.7735   15.1202 H   0  0  0  0  0  0  0  0  0  0  0  0
   68.0404   30.8169   17.3118 C   0  0  0  0  0  0  0  0  0  0  0  0
   68.1801   31.6471   18.4287 C   0  0  0  0  0  0  0  0  0  0  0  0
   67.0934   32.4036   18.8465 C   0  0  0  0  0  0  0  0  0  0  0  0
   65.8858   32.3424   18.1549 C   0  0  0  0  0  0  0  0  0  0  0  0
   65.7367   31.5212   17.0449 C   0  0  0  0  0  0  0  0  0  0  0  0
   66.8166   30.7377   16.6208 C   0  0  0  0  0  0  0  0  0  0  0  0
   64.8242   33.0928   18.5730 O   0  0  0  0  0  0  0  0  0  0  0  0
   67.1603   33.2247   19.9370 O   0  0  0  0  0  0  0  0  0  0  0  0
   65.1582   33.5853   19.3495 H   0  0  0  0  0  0  0  0  0  0  0  0
   68.0538   33.1591   20.3165 H   0  0  0  0  0  0  0  0  0  0  0  0
 18 19  2  0  0  0
 19 20  1  0  0  0
 20 21  2  0  0  0
 21 22  1  0  0  0
 22 23  2  0  0  0
 18 23  1  0  0  0
 23  1  1  0  0  0
  1  2  2  0  0  0
  2  3  1  0  0  0
  3  4  2  0  0  0
  3  5  1  0  0  0
  5  6  2  0  0  0
  6  7  1  0  0  0
  7  8  2  0  0  0
  8  9  1  0  0  0
  9 10  2  0  0  0
  5 10  1  0  0  0
 10 11  1  0  0  0
  1 11  1  0  0  0
  8 12  1  0  0  0
  6 13  1  0  0  0
  2 14  1  0  0  0
 21 24  1  0  0  0
 20 25  1  0  0  0
 12 15  1  0  0  0
 13 16  1  0  0  0
 14 17  1  0  0  0
 24 26  1  0  0  0
 25 27  1  0  0  0
M  END
> <minimizedAffinity>
-7.35391

$$$$
Quercetin


 27 29  0  0  0  0  0  0  0  0999 V2000
   67.0378   28.8124   15.5741 C   0  0  0  0  0  0  0  0  0  0  0  0
   67.9884   28.0357   16.1327 C   0  0  0  0  0  0  0  0  0  0  0  0
   68.5165   26.8991   15.3307 C   0  0  0  0  0  0  0  0  0  0  0  0
   69.3948   26.1425   15.7383 O   0  0  0  0  0  0  0  0  0  0  0  0
   67.9447   26.6984   13.9943 C   0  0  0  0  0  0  0  0  0  0  0  0
   68.3811   25.6627   13.1589 C   0  0  0  0  0  0  0  0  0  0  0  0
   67.8194   25.4922   11.8960 C   0  0  0  0  0  0  0  0  0  0  0  0
   66.8177   26.3632   11.4776 C   0  0  0  0  0  0  0  0  0  0  0  0
   66.3760   27.3973   12.2989 C   0  0  0  0  0  0  0  0  0  0  0  0
   66.9459   27.5655   13.5612 C   0  0  0  0  0  0  0  0  0  0  0  0
   66.4817   28.6071   14.3223 O   0  0  0  0  0  0  0  0  0  0  0  0
   66.2371   26.2362   10.2505 O   0  0  0  0  0  0  0  0  0  0  0  0
   69.3619   24.7773   13.5186 O   0  0  0  0  0  0  0  0  0  0  0  0
   68.5102   28.2164   17.4017 O   0  0  0  0  0  0  0  0  0  0  0  0
   66.6396   25.4801    9.7898 H   0  0  0  0  0  0  0  0  0  0  0  0
   69.6634   25.0080   14.4281 H   0  0  0  0  0  0  0  0  0  0  0  0
   67.9697   28.8674   17.8796 H   0  0  0  0  0  0  0  0  0  0  0  0
   67.2728   30.7290   17.1621 C   0  0  0  0  0  0  0  0  0  0  0  0
   66.7429   31.8284   17.8454 C   0  0  0  0  0  0  0  0  0  0  0  0
   65.4225   32.1916   17.6168 C   0  0  0  0  0  0  0  0  0  0  0  0
   64.6423   31.4758   16.7115 C   0  0  0  0  0  0  0  0  0  0  0  0
   65.1590   30.3827   16.0282 C   0  0  0  0  0  0  0  0  0  0  0  0
   66.4828   29.9914   16.2603 C   0  0  0  0  0  0  0  0  0  0  0  0
   63.3455   31.8435   16.4923 O   0  0  0  0  0  0  0  0  0  0  0  0
   64.8409   33.2474   18.2609 O   0  0  0  0  0  0  0  0  0  0  0  0
   63.2084   32.6248   17.0647 H   0  0  0  0  0  0  0  0  0  0  0  0
   65.4987   33.6421   18.8593 H   0  0  0  0  0  0  0  0  0  0  0  0
 18 19  2  0  0  0
 19 20  1  0  0  0
 20 21  2  0  0  0
 21 22  1  0  0  0
 22 23  2  0  0  0
 18 23  1  0  0  0
 23  1  1  0  0  0
  1  2  2  0  0  0
  2  3  1  0  0  0
  3  4  2  0  0  0
  3  5  1  0  0  0
  5  6  2  0  0  0
  6  7  1  0  0  0
  7  8  2  0  0  0
  8  9  1  0  0  0
  9 10  2  0  0  0
  5 10  1  0  0  0
 10 11  1  0  0  0
  1 11  1  0  0  0
  8 12  1  0  0  0
  6 13  1  0  0  0
  2 14  1  0  0  0
 21 24  1  0  0  0
 20 25  1  0  0  0
 12 15  1  0  0  0
 13 16  1  0  0  0
 14 17  1  0  0  0
 24 26  1  0  0  0
 25 27  1  0  0  0
M  END
> <minimizedAffinity>
-7.11715

$$$$
Quercetin


 27 29  0  0  0  0  0  0  0  0999 V2000
   67.4373   28.7484   15.2767 C   0  0  0  0  0  0  0  0  0  0  0  0
   68.4909   28.9628   16.0910 C   0  0  0  0  0  0  0  0  0  0  0  0
   68.3625   30.0213   17.1287 C   0  0  0  0  0  0  0  0  0  0  0  0
   69.2550   30.2843   17.9315 O   0  0  0  0  0  0  0  0  0  0  0  0
   67.0998   30.7675   17.1731 C   0  0  0  0  0  0  0  0  0  0  0  0
   66.8781   31.7765   18.1185 C   0  0  0  0  0  0  0  0  0  0  0  0
   65.6717   32.4719   18.1369 C   0  0  0  0  0  0  0  0  0  0  0  0
   64.6917   32.1519   17.2019 C   0  0  0  0  0  0  0  0  0  0  0  0
   64.9001   31.1501   16.2574 C   0  0  0  0  0  0  0  0  0  0  0  0
   66.1092   30.4541   16.2471 C   0  0  0  0  0  0  0  0  0  0  0  0
   66.2554   29.4700   15.3038 O   0  0  0  0  0  0  0  0  0  0  0  0
   63.4950   32.8050   17.1798 O   0  0  0  0  0  0  0  0  0  0  0  0
   67.8059   32.1328   19.0607 O   0  0  0  0  0  0  0  0  0  0  0  0
   69.6877   28.2703   16.0323 O   0  0  0  0  0  0  0  0  0  0  0  0
   63.4882   33.4713   17.8881 H   0  0  0  0  0  0  0  0  0  0  0  0
   68.6050   31.5708   18.9306 H   0  0  0  0  0  0  0  0  0  0  0  0
   69.7108   27.7411   15.2175 H   0  0  0  0  0  0  0  0  0  0  0  0
   68.3153   26.5959   14.3567 C   0  0  0  0  0  0  0  0  0  0  0  0
   68.3499   25.6077   13.3675 C   0  0  0  0  0  0  0  0  0  0  0  0
   67.4998   25.7173   12.2752 C   0  0  0  0  0  0  0  0  0  0  0  0
   66.6188   26.7916   12.1740 C   0  0  0  0  0  0  0  0  0  0  0  0
   66.5769   27.7781   13.1507 C   0  0  0  0  0  0  0  0  0  0  0  0
   67.4399   27.6931   14.2496 C   0  0  0  0  0  0  0  0  0  0  0  0
   65.7852   26.8880   11.0967 O   0  0  0  0  0  0  0  0  0  0  0  0
   67.4928   24.7928   11.2687 O   0  0  0  0  0  0  0  0  0  0  0  0
   65.9830   26.0959   10.5576 H   0  0  0  0  0  0  0  0  0  0  0  0
   68.1575   24.1120   11.4723 H   0  0  0  0  0  0  0  0  0  0  0  0
 18 19  2  0  0  0
 19 20  1  0  0  0
 20 21  2  0  0  0
 21 22  1  0  0  0
 22 23  2  0  0  0
 18 23  1  0  0  0
 23  1  1  0  0  0
  1  2  2  0  0  0
  2  3  1  0  0  0
  3  4  2  0  0  0
  3  5  1  0  0  0
  5  6  2  0  0  0
  6  7  1  0  0  0
  7  8  2  0  0  0
  8  9  1  0  0  0
  9 10  2  0  0  0
  5 10  1  0  0  0
 10 11  1  0  0  0
  1 11  1  0  0  0
  8 12  1  0  0  0
  6 13  1  0  0  0
  2 14  1  0  0  0
 21 24  1  0  0  0
 20 25  1  0  0  0
 12 15  1  0  0  0
 13 16  1  0  0  0
 14 17  1  0  0  0
 24 26  1  0  0  0
 25 27  1  0  0  0
M  END
> <minimizedAffinity>
-6.71433

$$$$
Quercetin


 27 29  0  0  0  0  0  0  0  0999 V2000
   66.1950   30.8448   16.0966 C   0  0  0  0  0  0  0  0  0  0  0  0
   67.3187   31.1407   16.7813 C   0  0  0  0  0  0  0  0  0  0  0  0
   67.1874   31.9814   18.0018 C   0  0  0  0  0  0  0  0  0  0  0  0
   68.1444   32.2935   18.7066 O   0  0  0  0  0  0  0  0  0  0  0  0
   65.8403   32.4425   18.3569 C   0  0  0  0  0  0  0  0  0  0  0  0
   65.6112   33.2305   19.4916 C   0  0  0  0  0  0  0  0  0  0  0  0
   64.3232   33.6577   19.8042 C   0  0  0  0  0  0  0  0  0  0  0  0
   63.2685   33.2929   18.9726 C   0  0  0  0  0  0  0  0  0  0  0  0
   63.4836   32.5090   17.8419 C   0  0  0  0  0  0  0  0  0  0  0  0
   64.7758   32.0805   17.5367 C   0  0  0  0  0  0  0  0  0  0  0  0
   64.9276   31.3010   16.4191 O   0  0  0  0  0  0  0  0  0  0  0  0
   61.9903   33.6872   19.2367 O   0  0  0  0  0  0  0  0  0  0  0  0
   66.6101   33.6189   20.3441 O   0  0  0  0  0  0  0  0  0  0  0  0
   68.5900   30.7204   16.4312 O   0  0  0  0  0  0  0  0  0  0  0  0
   61.9888   34.2230   20.0483 H   0  0  0  0  0  0  0  0  0  0  0  0
   67.4608   33.2557   20.0038 H   0  0  0  0  0  0  0  0  0  0  0  0
   68.5652   30.3368   15.5387 H   0  0  0  0  0  0  0  0  0  0  0  0
   65.6898   30.4468   13.6807 C   0  0  0  0  0  0  0  0  0  0  0  0
   65.6631   29.6202   12.5528 C   0  0  0  0  0  0  0  0  0  0  0  0
   66.1619   28.3283   12.6519 C   0  0  0  0  0  0  0  0  0  0  0  0
   66.6904   27.8683   13.8559 C   0  0  0  0  0  0  0  0  0  0  0  0
   66.7213   28.6811   14.9816 C   0  0  0  0  0  0  0  0  0  0  0  0
   66.2058   29.9803   14.9045 C   0  0  0  0  0  0  0  0  0  0  0  0
   67.1808   26.5967   13.9414 O   0  0  0  0  0  0  0  0  0  0  0  0
   66.1538   27.4666   11.5911 O   0  0  0  0  0  0  0  0  0  0  0  0
   67.0628   26.2238   13.0447 H   0  0  0  0  0  0  0  0  0  0  0  0
   65.7537   27.9209   10.8294 H   0  0  0  0  0  0  0  0  0  0  0  0
 18 19  2  0  0  0
 19 20  1  0  0  0
 20 21  2  0  0  0
 21 22  1  0  0  0
 22 23  2  0  0  0
 18 23  1  0  0  0
 23  1  1  0  0  0
  1  2  2  0  0  0
  2  3  1  0  0  0
  3  4  2  0  0  0
  3  5  1  0  0  0
  5  6  2  0  0  0
  6  7  1  0  0  0
  7  8  2  0  0  0
  8  9  1  0  0  0
  9 10  2  0  0  0
  5 10  1  0  0  0
 10 11  1  0  0  0
  1 11  1  0  0  0
  8 12  1  0  0  0
  6 13  1  0  0  0
  2 14  1  0  0  0
 21 24  1  0  0  0
 20 25  1  0  0  0
 12 15  1  0  0  0
 13 16  1  0  0  0
 14 17  1  0  0  0
 24 26  1  0  0  0
 25 27  1  0  0  0
M  END
> <minimizedAffinity>
-6.67765

$$$$
Quercetin


 27 29  0  0  0  0  0  0  0  0999 V2000
   66.4699   30.6701   16.1062 C   0  0  0  0  0  0  0  0  0  0  0  0
   65.3825   31.2460   16.6583 C   0  0  0  0  0  0  0  0  0  0  0  0
   65.5875   32.1278   17.8390 C   0  0  0  0  0  0  0  0  0  0  0  0
   64.6677   32.7140   18.4052 O   0  0  0  0  0  0  0  0  0  0  0  0
   66.9624   32.2876   18.3262 C   0  0  0  0  0  0  0  0  0  0  0  0
   67.2600   33.1031   19.4249 C   0  0  0  0  0  0  0  0  0  0  0  0
   68.5733   33.2350   19.8691 C   0  0  0  0  0  0  0  0  0  0  0  0
   69.5841   32.5436   19.2078 C   0  0  0  0  0  0  0  0  0  0  0  0
   69.3007   31.7303   18.1136 C   0  0  0  0  0  0  0  0  0  0  0  0
   67.9836   31.6060   17.6708 C   0  0  0  0  0  0  0  0  0  0  0  0
   67.7639   30.8023   16.5819 O   0  0  0  0  0  0  0  0  0  0  0  0
   70.8846   32.6403   19.6059 O   0  0  0  0  0  0  0  0  0  0  0  0
   66.3065   33.8055   20.1126 O   0  0  0  0  0  0  0  0  0  0  0  0
   64.0849   31.0761   16.2079 O   0  0  0  0  0  0  0  0  0  0  0  0
   70.9343   33.2360   20.3730 H   0  0  0  0  0  0  0  0  0  0  0  0
   65.4315   33.6179   19.6996 H   0  0  0  0  0  0  0  0  0  0  0  0
   64.0644   30.3544   15.5575 H   0  0  0  0  0  0  0  0  0  0  0  0
   65.7484   30.2909   13.7427 C   0  0  0  0  0  0  0  0  0  0  0  0
   65.6319   29.4775   12.6109 C   0  0  0  0  0  0  0  0  0  0  0  0
   66.1623   28.1949   12.6451 C   0  0  0  0  0  0  0  0  0  0  0  0
   66.8098   27.7313   13.7880 C   0  0  0  0  0  0  0  0  0  0  0  0
   66.9306   28.5310   14.9170 C   0  0  0  0  0  0  0  0  0  0  0  0
   66.3854   29.8203   14.9064 C   0  0  0  0  0  0  0  0  0  0  0  0
   67.3302   26.4689   13.8097 O   0  0  0  0  0  0  0  0  0  0  0  0
   66.0712   27.3460   11.5779 O   0  0  0  0  0  0  0  0  0  0  0  0
   67.1359   26.1046   12.9229 H   0  0  0  0  0  0  0  0  0  0  0  0
   65.5930   27.8012   10.8632 H   0  0  0  0  0  0  0  0  0  0  0  0
 18 19  2  0  0  0
 19 20  1  0  0  0
 20 21  2  0  0  0
 21 22  1  0  0  0
 22 23  2  0  0  0
 18 23  1  0  0  0
 23  1  1  0  0  0
  1  2  2  0  0  0
  2  3  1  0  0  0
  3  4  2  0  0  0
  3  5  1  0  0  0
  5  6  2  0  0  0
  6  7  1  0  0  0
  7  8  2  0  0  0
  8  9  1  0  0  0
  9 10  2  0  0  0
  5 10  1  0  0  0
 10 11  1  0  0  0
  1 11  1  0  0  0
  8 12  1  0  0  0
  6 13  1  0  0  0
  2 14  1  0  0  0
 21 24  1  0  0  0
 20 25  1  0  0  0
 12 15  1  0  0  0
 13 16  1  0  0  0
 14 17  1  0  0  0
 24 26  1  0  0  0
 25 27  1  0  0  0
M  END
> <minimizedAffinity>
-6.50670

$$$$
