Quercetin


 27 29  0  0  0  0  0  0  0  0999 V2000
   23.4880   34.8331   -5.9158 C   0  0  0  0  0  0  0  0  0  0  0  0
   24.4729   35.7487   -6.0200 C   0  0  0  0  0  0  0  0  0  0  0  0
   25.6553   35.6013   -5.1290 C   0  0  0  0  0  0  0  0  0  0  0  0
   26.6142   36.3694   -5.1557 O   0  0  0  0  0  0  0  0  0  0  0  0
   25.6492   34.4763   -4.1869 C   0  0  0  0  0  0  0  0  0  0  0  0
   26.7192   34.2467   -3.3132 C   0  0  0  0  0  0  0  0  0  0  0  0
   26.6868   33.1734   -2.4265 C   0  0  0  0  0  0  0  0  0  0  0  0
   25.5762   32.3347   -2.4193 C   0  0  0  0  0  0  0  0  0  0  0  0
   24.5064   32.5523   -3.2838 C   0  0  0  0  0  0  0  0  0  0  0  0
   24.5470   33.6267   -4.1728 C   0  0  0  0  0  0  0  0  0  0  0  0
   23.4724   33.7861   -5.0093 O   0  0  0  0  0  0  0  0  0  0  0  0
   25.4981   31.2716   -1.5691 O   0  0  0  0  0  0  0  0  0  0  0  0
   27.8358   35.0388   -3.2770 O   0  0  0  0  0  0  0  0  0  0  0  0
   24.4651   36.8201   -6.8960 O   0  0  0  0  0  0  0  0  0  0  0  0
   26.3069   31.2412   -1.0298 H   0  0  0  0  0  0  0  0  0  0  0  0
   27.7242   35.7551   -3.9446 H   0  0  0  0  0  0  0  0  0  0  0  0
   23.5802   36.9055   -7.2884 H   0  0  0  0  0  0  0  0  0  0  0  0
   22.3953   34.4858   -8.1375 C   0  0  0  0  0  0  0  0  0  0  0  0
   21.2780   34.5398   -8.9771 C   0  0  0  0  0  0  0  0  0  0  0  0
   20.0617   34.9585   -8.4546 C   0  0  0  0  0  0  0  0  0  0  0  0
   19.9564   35.3091   -7.1105 C   0  0  0  0  0  0  0  0  0  0  0  0
   21.0598   35.2591   -6.2686 C   0  0  0  0  0  0  0  0  0  0  0  0
   22.2980   34.8568   -6.7831 C   0  0  0  0  0  0  0  0  0  0  0  0
   18.7546   35.7169   -6.6064 O   0  0  0  0  0  0  0  0  0  0  0  0
   18.9356   35.0453   -9.2240 O   0  0  0  0  0  0  0  0  0  0  0  0
   18.1374   35.6668   -7.3638 H   0  0  0  0  0  0  0  0  0  0  0  0
   19.1622   34.7774  -10.1315 H   0  0  0  0  0  0  0  0  0  0  0  0
 18 19  2  0  0  0
 19 20  1  0  0  0
 20 21  2  0  0  0
 21 22  1  0  0  0
 22 23  2  0  0  0
 18 23  1  0  0  0
 23  1  1  0  0  0
  1  2  2  0  0  0
  2  3  1  0  0  0
  3  4  2  0  0  0
  3  5  1  0  0  0
  5  6  2  0  0  0
  6  7  1  0  0  0
  7  8  2  0  0  0
  8  9  1  0  0  0
  9 10  2  0  0  0
  5 10  1  0  0  0
 10 11  1  0  0  0
  1 11  1  0  0  0
  8 12  1  0  0  0
  6 13  1  0  0  0
  2 14  1  0  0  0
 21 24  1  0  0  0
 20 25  1  0  0  0
 12 15  1  0  0  0
 13 16  1  0  0  0
 14 17  1  0  0  0
 24 26  1  0  0  0
 25 27  1  0  0  0
M  END
> <minimizedAffinity>
-5.64800

$$$$
Quercetin


 27 29  0  0  0  0  0  0  0  0999 V2000
   26.7765   35.1056   -3.4743 C   0  0  0  0  0  0  0  0  0  0  0  0
   27.9282   34.5929   -3.9536 C   0  0  0  0  0  0  0  0  0  0  0  0
   29.1884   34.9257   -3.2360 C   0  0  0  0  0  0  0  0  0  0  0  0
   30.2878   34.4968   -3.5787 O   0  0  0  0  0  0  0  0  0  0  0  0
   29.0822   35.8069   -2.0675 C   0  0  0  0  0  0  0  0  0  0  0  0
   30.2089   36.1711   -1.3200 C   0  0  0  0  0  0  0  0  0  0  0  0
   30.0810   37.0116   -0.2170 C   0  0  0  0  0  0  0  0  0  0  0  0
   28.8193   37.4859    0.1298 C   0  0  0  0  0  0  0  0  0  0  0  0
   27.6913   37.1301   -0.6053 C   0  0  0  0  0  0  0  0  0  0  0  0
   27.8257   36.2842   -1.7065 C   0  0  0  0  0  0  0  0  0  0  0  0
   26.6807   35.9569   -2.3859 O   0  0  0  0  0  0  0  0  0  0  0  0
   28.6437   38.3115    1.2006 O   0  0  0  0  0  0  0  0  0  0  0  0
   31.4730   35.7349   -1.6153 O   0  0  0  0  0  0  0  0  0  0  0  0
   28.0261   33.7786   -5.0684 O   0  0  0  0  0  0  0  0  0  0  0  0
   29.5077   38.4739    1.6164 H   0  0  0  0  0  0  0  0  0  0  0  0
   31.4189   35.1591   -2.4134 H   0  0  0  0  0  0  0  0  0  0  0  0
   27.1769   33.7804   -5.5409 H   0  0  0  0  0  0  0  0  0  0  0  0
   24.5927   35.8383   -4.4463 C   0  0  0  0  0  0  0  0  0  0  0  0
   23.3341   35.5563   -4.9872 C   0  0  0  0  0  0  0  0  0  0  0  0
   22.9587   34.2315   -5.1658 C   0  0  0  0  0  0  0  0  0  0  0  0
   23.8294   33.2005   -4.8201 C   0  0  0  0  0  0  0  0  0  0  0  0
   25.0811   33.4701   -4.2823 C   0  0  0  0  0  0  0  0  0  0  0  0
   25.4686   34.7997   -4.0782 C   0  0  0  0  0  0  0  0  0  0  0  0
   23.4509   31.9012   -5.0027 O   0  0  0  0  0  0  0  0  0  0  0  0
   21.7388   33.8883   -5.6775 O   0  0  0  0  0  0  0  0  0  0  0  0
   22.5546   31.9555   -5.3909 H   0  0  0  0  0  0  0  0  0  0  0  0
   21.2433   34.7046   -5.8641 H   0  0  0  0  0  0  0  0  0  0  0  0
 18 19  2  0  0  0
 19 20  1  0  0  0
 20 21  2  0  0  0
 21 22  1  0  0  0
 22 23  2  0  0  0
 18 23  1  0  0  0
 23  1  1  0  0  0
  1  2  2  0  0  0
  2  3  1  0  0  0
  3  4  2  0  0  0
  3  5  1  0  0  0
  5  6  2  0  0  0
  6  7  1  0  0  0
  7  8  2  0  0  0
  8  9  1  0  0  0
  9 10  2  0  0  0
  5 10  1  0  0  0
 10 11  1  0  0  0
  1 11  1  0  0  0
  8 12  1  0  0  0
  6 13  1  0  0  0
  2 14  1  0  0  0
 21 24  1  0  0  0
 20 25  1  0  0  0
 12 15  1  0  0  0
 13 16  1  0  0  0
 14 17  1  0  0  0
 24 26  1  0  0  0
 25 27  1  0  0  0
M  END
> <minimizedAffinity>
-5.59236

$$$$
Quercetin


 27 29  0  0  0  0  0  0  0  0999 V2000
   26.3006   34.4938   -3.4955 C   0  0  0  0  0  0  0  0  0  0  0  0
   25.7452   33.2966   -3.7737 C   0  0  0  0  0  0  0  0  0  0  0  0
   24.4055   33.2861   -4.4208 C   0  0  0  0  0  0  0  0  0  0  0  0
   23.8199   32.2515   -4.7321 O   0  0  0  0  0  0  0  0  0  0  0  0
   23.7801   34.5860   -4.6896 C   0  0  0  0  0  0  0  0  0  0  0  0
   22.5251   34.6822   -5.3033 C   0  0  0  0  0  0  0  0  0  0  0  0
   21.9524   35.9286   -5.5442 C   0  0  0  0  0  0  0  0  0  0  0  0
   22.6431   37.0756   -5.1644 C   0  0  0  0  0  0  0  0  0  0  0  0
   23.8920   36.9928   -4.5540 C   0  0  0  0  0  0  0  0  0  0  0  0
   24.4623   35.7413   -4.3196 C   0  0  0  0  0  0  0  0  0  0  0  0
   25.6986   35.7194   -3.7274 O   0  0  0  0  0  0  0  0  0  0  0  0
   22.1233   38.3178   -5.3785 O   0  0  0  0  0  0  0  0  0  0  0  0
   21.8016   33.5883   -5.6973 O   0  0  0  0  0  0  0  0  0  0  0  0
   26.3298   32.0725   -3.4998 O   0  0  0  0  0  0  0  0  0  0  0  0
   21.2557   38.2249   -5.8081 H   0  0  0  0  0  0  0  0  0  0  0  0
   22.3165   32.7810   -5.4638 H   0  0  0  0  0  0  0  0  0  0  0  0
   27.1046   32.2090   -2.9293 H   0  0  0  0  0  0  0  0  0  0  0  0
   28.7552   34.9168   -3.7108 C   0  0  0  0  0  0  0  0  0  0  0  0
   30.0385   35.0016   -3.1612 C   0  0  0  0  0  0  0  0  0  0  0  0
   30.2030   34.7952   -1.7981 C   0  0  0  0  0  0  0  0  0  0  0  0
   29.1023   34.5180   -0.9904 C   0  0  0  0  0  0  0  0  0  0  0  0
   27.8241   34.4314   -1.5265 C   0  0  0  0  0  0  0  0  0  0  0  0
   27.6425   34.6186   -2.9019 C   0  0  0  0  0  0  0  0  0  0  0  0
   29.2752   34.3193    0.3496 O   0  0  0  0  0  0  0  0  0  0  0  0
   31.4310   34.8517   -1.2010 O   0  0  0  0  0  0  0  0  0  0  0  0
   30.2357   34.4335    0.4960 H   0  0  0  0  0  0  0  0  0  0  0  0
   32.0960   35.0458   -1.8842 H   0  0  0  0  0  0  0  0  0  0  0  0
 18 19  2  0  0  0
 19 20  1  0  0  0
 20 21  2  0  0  0
 21 22  1  0  0  0
 22 23  2  0  0  0
 18 23  1  0  0  0
 23  1  1  0  0  0
  1  2  2  0  0  0
  2  3  1  0  0  0
  3  4  2  0  0  0
  3  5  1  0  0  0
  5  6  2  0  0  0
  6  7  1  0  0  0
  7  8  2  0  0  0
  8  9  1  0  0  0
  9 10  2  0  0  0
  5 10  1  0  0  0
 10 11  1  0  0  0
  1 11  1  0  0  0
  8 12  1  0  0  0
  6 13  1  0  0  0
  2 14  1  0  0  0
 21 24  1  0  0  0
 20 25  1  0  0  0
 12 15  1  0  0  0
 13 16  1  0  0  0
 14 17  1  0  0  0
 24 26  1  0  0  0
 25 27  1  0  0  0
M  END
> <minimizedAffinity>
-5.57266

$$$$
Quercetin


 27 29  0  0  0  0  0  0  0  0999 V2000
   26.5821   35.2334   -2.6726 C   0  0  0  0  0  0  0  0  0  0  0  0
   26.6755   33.8885   -2.6353 C   0  0  0  0  0  0  0  0  0  0  0  0
   25.6768   33.1011   -3.4077 C   0  0  0  0  0  0  0  0  0  0  0  0
   25.6835   31.8732   -3.4552 O   0  0  0  0  0  0  0  0  0  0  0  0
   24.6499   33.8528   -4.1382 C   0  0  0  0  0  0  0  0  0  0  0  0
   23.6714   33.2040   -4.9015 C   0  0  0  0  0  0  0  0  0  0  0  0
   22.7060   33.9411   -5.5827 C   0  0  0  0  0  0  0  0  0  0  0  0
   22.7260   35.3298   -5.4921 C   0  0  0  0  0  0  0  0  0  0  0  0
   23.6943   35.9863   -4.7369 C   0  0  0  0  0  0  0  0  0  0  0  0
   24.6614   35.2423   -4.0604 C   0  0  0  0  0  0  0  0  0  0  0  0
   25.5976   35.9408   -3.3426 O   0  0  0  0  0  0  0  0  0  0  0  0
   21.8016   36.0943   -6.1403 O   0  0  0  0  0  0  0  0  0  0  0  0
   23.6040   31.8419   -5.0258 O   0  0  0  0  0  0  0  0  0  0  0  0
   27.6336   33.1831   -1.9282 O   0  0  0  0  0  0  0  0  0  0  0  0
   21.1939   35.5089   -6.6239 H   0  0  0  0  0  0  0  0  0  0  0  0
   24.3351   31.4499   -4.4938 H   0  0  0  0  0  0  0  0  0  0  0  0
   28.1065   33.7919   -1.3365 H   0  0  0  0  0  0  0  0  0  0  0  0
   28.8740   36.2064   -2.4468 C   0  0  0  0  0  0  0  0  0  0  0  0
   29.8070   37.0062   -1.7791 C   0  0  0  0  0  0  0  0  0  0  0  0
   29.4060   37.7130   -0.6533 C   0  0  0  0  0  0  0  0  0  0  0  0
   28.0899   37.6328   -0.2038 C   0  0  0  0  0  0  0  0  0  0  0  0
   27.1559   36.8414   -0.8596 C   0  0  0  0  0  0  0  0  0  0  0  0
   27.5477   36.1076   -1.9856 C   0  0  0  0  0  0  0  0  0  0  0  0
   27.7056   38.3343    0.9030 O   0  0  0  0  0  0  0  0  0  0  0  0
   30.2711   38.5022    0.0513 O   0  0  0  0  0  0  0  0  0  0  0  0
   28.5103   38.8137    1.1854 H   0  0  0  0  0  0  0  0  0  0  0  0
   31.1453   38.4548   -0.3732 H   0  0  0  0  0  0  0  0  0  0  0  0
 18 19  2  0  0  0
 19 20  1  0  0  0
 20 21  2  0  0  0
 21 22  1  0  0  0
 22 23  2  0  0  0
 18 23  1  0  0  0
 23  1  1  0  0  0
  1  2  2  0  0  0
  2  3  1  0  0  0
  3  4  2  0  0  0
  3  5  1  0  0  0
  5  6  2  0  0  0
  6  7  1  0  0  0
  7  8  2  0  0  0
  8  9  1  0  0  0
  9 10  2  0  0  0
  5 10  1  0  0  0
 10 11  1  0  0  0
  1 11  1  0  0  0
  8 12  1  0  0  0
  6 13  1  0  0  0
  2 14  1  0  0  0
 21 24  1  0  0  0
 20 25  1  0  0  0
 12 15  1  0  0  0
 13 16  1  0  0  0
 14 17  1  0  0  0
 24 26  1  0  0  0
 25 27  1  0  0  0
M  END
> <minimizedAffinity>
-5.36504

$$$$
Quercetin


 27 29  0  0  0  0  0  0  0  0999 V2000
   26.3091   34.9119   -2.1821 C   0  0  0  0  0  0  0  0  0  0  0  0
   26.1969   36.0668   -1.4947 C   0  0  0  0  0  0  0  0  0  0  0  0
   27.2926   36.4243   -0.5537 C   0  0  0  0  0  0  0  0  0  0  0  0
   27.2971   37.4607    0.1067 O   0  0  0  0  0  0  0  0  0  0  0  0
   28.4069   35.4775   -0.4310 C   0  0  0  0  0  0  0  0  0  0  0  0
   29.4900   35.7274    0.4208 C   0  0  0  0  0  0  0  0  0  0  0  0
   30.5334   34.8106    0.5212 C   0  0  0  0  0  0  0  0  0  0  0  0
   30.4833   33.6429   -0.2344 C   0  0  0  0  0  0  0  0  0  0  0  0
   29.4121   33.3836   -1.0855 C   0  0  0  0  0  0  0  0  0  0  0  0
   28.3721   34.3081   -1.1848 C   0  0  0  0  0  0  0  0  0  0  0  0
   27.3495   34.0076   -2.0471 O   0  0  0  0  0  0  0  0  0  0  0  0
   31.4805   32.7152   -0.1696 O   0  0  0  0  0  0  0  0  0  0  0  0
   29.5913   36.8583    1.1866 O   0  0  0  0  0  0  0  0  0  0  0  0
   25.1340   36.9471   -1.5984 O   0  0  0  0  0  0  0  0  0  0  0  0
   32.1565   33.0246    0.4575 H   0  0  0  0  0  0  0  0  0  0  0  0
   28.7912   37.4103    1.0238 H   0  0  0  0  0  0  0  0  0  0  0  0
   24.4168   36.5242   -2.0997 H   0  0  0  0  0  0  0  0  0  0  0  0
   24.7461   33.1980   -3.1148 C   0  0  0  0  0  0  0  0  0  0  0  0
   23.8210   32.7740   -4.0743 C   0  0  0  0  0  0  0  0  0  0  0  0
   23.4535   33.6479   -5.0886 C   0  0  0  0  0  0  0  0  0  0  0  0
   23.9922   34.9314   -5.1414 C   0  0  0  0  0  0  0  0  0  0  0  0
   24.9116   35.3619   -4.1937 C   0  0  0  0  0  0  0  0  0  0  0  0
   25.3073   34.4875   -3.1746 C   0  0  0  0  0  0  0  0  0  0  0  0
   23.6216   35.7837   -6.1420 O   0  0  0  0  0  0  0  0  0  0  0  0
   22.5644   33.2914   -6.0635 O   0  0  0  0  0  0  0  0  0  0  0  0
   22.9753   35.2769   -6.6736 H   0  0  0  0  0  0  0  0  0  0  0  0
   22.2813   32.3749   -5.9007 H   0  0  0  0  0  0  0  0  0  0  0  0
 18 19  2  0  0  0
 19 20  1  0  0  0
 20 21  2  0  0  0
 21 22  1  0  0  0
 22 23  2  0  0  0
 18 23  1  0  0  0
 23  1  1  0  0  0
  1  2  2  0  0  0
  2  3  1  0  0  0
  3  4  2  0  0  0
  3  5  1  0  0  0
  5  6  2  0  0  0
  6  7  1  0  0  0
  7  8  2  0  0  0
  8  9  1  0  0  0
  9 10  2  0  0  0
  5 10  1  0  0  0
 10 11  1  0  0  0
  1 11  1  0  0  0
  8 12  1  0  0  0
  6 13  1  0  0  0
  2 14  1  0  0  0
 21 24  1  0  0  0
 20 25  1  0  0  0
 12 15  1  0  0  0
 13 16  1  0  0  0
 14 17  1  0  0  0
 24 26  1  0  0  0
 25 27  1  0  0  0
M  END
> <minimizedAffinity>
-5.36270

$$$$
