Quercetin


 27 29  0  0  0  0  0  0  0  0999 V2000
    5.6439   19.0488   17.3834 C   0  0  0  0  0  0  0  0  0  0  0  0
    5.8572   20.3300   17.7469 C   0  0  0  0  0  0  0  0  0  0  0  0
    5.6248   20.6961   19.1701 C   0  0  0  0  0  0  0  0  0  0  0  0
    5.8063   21.8297   19.6086 O   0  0  0  0  0  0  0  0  0  0  0  0
    5.1597   19.6334   20.0688 C   0  0  0  0  0  0  0  0  0  0  0  0
    4.9211   19.8752   21.4273 C   0  0  0  0  0  0  0  0  0  0  0  0
    4.4769   18.8495   22.2579 C   0  0  0  0  0  0  0  0  0  0  0  0
    4.2714   17.5830   21.7188 C   0  0  0  0  0  0  0  0  0  0  0  0
    4.5059   17.3300   20.3697 C   0  0  0  0  0  0  0  0  0  0  0  0
    4.9551   18.3608   19.5438 C   0  0  0  0  0  0  0  0  0  0  0  0
    5.1815   18.0525   18.2272 O   0  0  0  0  0  0  0  0  0  0  0  0
    3.8366   16.5472   22.4917 O   0  0  0  0  0  0  0  0  0  0  0  0
    5.1061   21.1003   22.0107 O   0  0  0  0  0  0  0  0  0  0  0  0
    6.2763   21.3339   16.8913 O   0  0  0  0  0  0  0  0  0  0  0  0
    3.7161   16.8649   23.4030 H   0  0  0  0  0  0  0  0  0  0  0  0
    5.4129   21.7270   21.3147 H   0  0  0  0  0  0  0  0  0  0  0  0
    6.2225   21.0155   15.9747 H   0  0  0  0  0  0  0  0  0  0  0  0
    7.1754   18.1408   15.6283 C   0  0  0  0  0  0  0  0  0  0  0  0
    7.4272   17.7177   14.3192 C   0  0  0  0  0  0  0  0  0  0  0  0
    6.3874   17.7171   13.3992 C   0  0  0  0  0  0  0  0  0  0  0  0
    5.1103   18.1227   13.7802 C   0  0  0  0  0  0  0  0  0  0  0  0
    4.8500   18.5447   15.0775 C   0  0  0  0  0  0  0  0  0  0  0  0
    5.8909   18.5691   16.0132 C   0  0  0  0  0  0  0  0  0  0  0  0
    4.0943   18.1155   12.8678 O   0  0  0  0  0  0  0  0  0  0  0  0
    6.5697   17.3275   12.1020 O   0  0  0  0  0  0  0  0  0  0  0  0
    4.5025   17.7819   12.0437 H   0  0  0  0  0  0  0  0  0  0  0  0
    7.5033   17.0803   11.9839 H   0  0  0  0  0  0  0  0  0  0  0  0
 18 19  2  0  0  0
 19 20  1  0  0  0
 20 21  2  0  0  0
 21 22  1  0  0  0
 22 23  2  0  0  0
 18 23  1  0  0  0
 23  1  1  0  0  0
  1  2  2  0  0  0
  2  3  1  0  0  0
  3  4  2  0  0  0
  3  5  1  0  0  0
  5  6  2  0  0  0
  6  7  1  0  0  0
  7  8  2  0  0  0
  8  9  1  0  0  0
  9 10  2  0  0  0
  5 10  1  0  0  0
 10 11  1  0  0  0
  1 11  1  0  0  0
  8 12  1  0  0  0
  6 13  1  0  0  0
  2 14  1  0  0  0
 21 24  1  0  0  0
 20 25  1  0  0  0
 12 15  1  0  0  0
 13 16  1  0  0  0
 14 17  1  0  0  0
 24 26  1  0  0  0
 25 27  1  0  0  0
M  END
> <minimizedAffinity>
-6.70127

$$$$
Quercetin


 27 29  0  0  0  0  0  0  0  0999 V2000
    5.4906   19.1275   17.4333 C   0  0  0  0  0  0  0  0  0  0  0  0
    5.0736   18.3055   18.4178 C   0  0  0  0  0  0  0  0  0  0  0  0
    4.7617   18.9095   19.7414 C   0  0  0  0  0  0  0  0  0  0  0  0
    4.3582   18.2534   20.6989 O   0  0  0  0  0  0  0  0  0  0  0  0
    4.9522   20.3579   19.8793 C   0  0  0  0  0  0  0  0  0  0  0  0
    4.6777   21.0216   21.0815 C   0  0  0  0  0  0  0  0  0  0  0  0
    4.8702   22.3968   21.1868 C   0  0  0  0  0  0  0  0  0  0  0  0
    5.3411   23.1009   20.0824 C   0  0  0  0  0  0  0  0  0  0  0  0
    5.6169   22.4522   18.8814 C   0  0  0  0  0  0  0  0  0  0  0  0
    5.4177   21.0750   18.7811 C   0  0  0  0  0  0  0  0  0  0  0  0
    5.6934   20.4906   17.5720 O   0  0  0  0  0  0  0  0  0  0  0  0
    5.5460   24.4478   20.1370 O   0  0  0  0  0  0  0  0  0  0  0  0
    4.2132   20.3800   22.1986 O   0  0  0  0  0  0  0  0  0  0  0  0
    4.9149   16.9367   18.2892 O   0  0  0  0  0  0  0  0  0  0  0  0
    5.3140   24.7645   21.0268 H   0  0  0  0  0  0  0  0  0  0  0  0
    4.1293   19.4209   21.9875 H   0  0  0  0  0  0  0  0  0  0  0  0
    5.3113   16.6467   17.4506 H   0  0  0  0  0  0  0  0  0  0  0  0
    7.0810   18.2439   15.7184 C   0  0  0  0  0  0  0  0  0  0  0  0
    7.3706   17.8155   14.4189 C   0  0  0  0  0  0  0  0  0  0  0  0
    6.3502   17.7789   13.4781 C   0  0  0  0  0  0  0  0  0  0  0  0
    5.0554   18.1541   13.8292 C   0  0  0  0  0  0  0  0  0  0  0  0
    4.7576   18.5812   15.1168 C   0  0  0  0  0  0  0  0  0  0  0  0
    5.7781   18.6418   16.0730 C   0  0  0  0  0  0  0  0  0  0  0  0
    4.0588   18.1117   12.8966 O   0  0  0  0  0  0  0  0  0  0  0  0
    6.5692   17.3822   12.1888 O   0  0  0  0  0  0  0  0  0  0  0  0
    4.4923   17.7813   12.0842 H   0  0  0  0  0  0  0  0  0  0  0  0
    7.5112   17.1587   12.0920 H   0  0  0  0  0  0  0  0  0  0  0  0
 18 19  2  0  0  0
 19 20  1  0  0  0
 20 21  2  0  0  0
 21 22  1  0  0  0
 22 23  2  0  0  0
 18 23  1  0  0  0
 23  1  1  0  0  0
  1  2  2  0  0  0
  2  3  1  0  0  0
  3  4  2  0  0  0
  3  5  1  0  0  0
  5  6  2  0  0  0
  6  7  1  0  0  0
  7  8  2  0  0  0
  8  9  1  0  0  0
  9 10  2  0  0  0
  5 10  1  0  0  0
 10 11  1  0  0  0
  1 11  1  0  0  0
  8 12  1  0  0  0
  6 13  1  0  0  0
  2 14  1  0  0  0
 21 24  1  0  0  0
 20 25  1  0  0  0
 12 15  1  0  0  0
 13 16  1  0  0  0
 14 17  1  0  0  0
 24 26  1  0  0  0
 25 27  1  0  0  0
M  END
> <minimizedAffinity>
-6.42673

$$$$
Quercetin


 27 29  0  0  0  0  0  0  0  0999 V2000
    4.8590   18.8948   17.6082 C   0  0  0  0  0  0  0  0  0  0  0  0
    3.7077   19.0994   16.9361 C   0  0  0  0  0  0  0  0  0  0  0  0
    3.6965   18.8167   15.4754 C   0  0  0  0  0  0  0  0  0  0  0  0
    2.6964   18.9526   14.7743 O   0  0  0  0  0  0  0  0  0  0  0  0
    4.9514   18.3535   14.8722 C   0  0  0  0  0  0  0  0  0  0  0  0
    5.0408   18.0522   13.5076 C   0  0  0  0  0  0  0  0  0  0  0  0
    6.2450   17.6174   12.9596 C   0  0  0  0  0  0  0  0  0  0  0  0
    7.3575   17.4893   13.7859 C   0  0  0  0  0  0  0  0  0  0  0  0
    7.2809   17.7852   15.1445 C   0  0  0  0  0  0  0  0  0  0  0  0
    6.0705   18.2160   15.6882 C   0  0  0  0  0  0  0  0  0  0  0  0
    6.0492   18.4811   17.0331 O   0  0  0  0  0  0  0  0  0  0  0  0
    8.5580   17.0680   13.2955 O   0  0  0  0  0  0  0  0  0  0  0  0
    3.9796   18.1601   12.6488 O   0  0  0  0  0  0  0  0  0  0  0  0
    2.5318   19.5560   17.5055 O   0  0  0  0  0  0  0  0  0  0  0  0
    8.4656   16.8991   12.3423 H   0  0  0  0  0  0  0  0  0  0  0  0
    3.2017   18.4798   13.1628 H   0  0  0  0  0  0  0  0  0  0  0  0
    2.7134   19.8660   18.4084 H   0  0  0  0  0  0  0  0  0  0  0  0
    4.6845   18.0402   19.9512 C   0  0  0  0  0  0  0  0  0  0  0  0
    4.7485   18.2319   21.3351 C   0  0  0  0  0  0  0  0  0  0  0  0
    5.1030   19.4810   21.8269 C   0  0  0  0  0  0  0  0  0  0  0  0
    5.4002   20.5234   20.9519 C   0  0  0  0  0  0  0  0  0  0  0  0
    5.3394   20.3433   19.5762 C   0  0  0  0  0  0  0  0  0  0  0  0
    4.9659   19.0955   19.0632 C   0  0  0  0  0  0  0  0  0  0  0  0
    5.7504   21.7472   21.4465 O   0  0  0  0  0  0  0  0  0  0  0  0
    5.1720   19.7375   23.1675 O   0  0  0  0  0  0  0  0  0  0  0  0
    5.7329   21.6369   22.4184 H   0  0  0  0  0  0  0  0  0  0  0  0
    4.9346   18.9256   23.6482 H   0  0  0  0  0  0  0  0  0  0  0  0
 18 19  2  0  0  0
 19 20  1  0  0  0
 20 21  2  0  0  0
 21 22  1  0  0  0
 22 23  2  0  0  0
 18 23  1  0  0  0
 23  1  1  0  0  0
  1  2  2  0  0  0
  2  3  1  0  0  0
  3  4  2  0  0  0
  3  5  1  0  0  0
  5  6  2  0  0  0
  6  7  1  0  0  0
  7  8  2  0  0  0
  8  9  1  0  0  0
  9 10  2  0  0  0
  5 10  1  0  0  0
 10 11  1  0  0  0
  1 11  1  0  0  0
  8 12  1  0  0  0
  6 13  1  0  0  0
  2 14  1  0  0  0
 21 24  1  0  0  0
 20 25  1  0  0  0
 12 15  1  0  0  0
 13 16  1  0  0  0
 14 17  1  0  0  0
 24 26  1  0  0  0
 25 27  1  0  0  0
M  END
> <minimizedAffinity>
-6.41123

$$$$
Quercetin


 27 29  0  0  0  0  0  0  0  0999 V2000
    5.3016   18.9710   17.9598 C   0  0  0  0  0  0  0  0  0  0  0  0
    5.4314   20.2193   18.4536 C   0  0  0  0  0  0  0  0  0  0  0  0
    5.4378   20.3842   19.9323 C   0  0  0  0  0  0  0  0  0  0  0  0
    5.5682   21.4743   20.4844 O   0  0  0  0  0  0  0  0  0  0  0  0
    5.2814   19.1711   20.7431 C   0  0  0  0  0  0  0  0  0  0  0  0
    5.2836   19.2202   22.1426 C   0  0  0  0  0  0  0  0  0  0  0  0
    5.1300   18.0543   22.8886 C   0  0  0  0  0  0  0  0  0  0  0  0
    4.9721   16.8416   22.2243 C   0  0  0  0  0  0  0  0  0  0  0  0
    4.9690   16.7799   20.8331 C   0  0  0  0  0  0  0  0  0  0  0  0
    5.1277   17.9510   20.0916 C   0  0  0  0  0  0  0  0  0  0  0  0
    5.1295   17.8300   18.7259 O   0  0  0  0  0  0  0  0  0  0  0  0
    4.8177   15.6738   22.9109 O   0  0  0  0  0  0  0  0  0  0  0  0
    5.4349   20.3843   22.8479 O   0  0  0  0  0  0  0  0  0  0  0  0
    5.5582   21.3631   17.6848 O   0  0  0  0  0  0  0  0  0  0  0  0
    4.8397   15.8652   23.8642 H   0  0  0  0  0  0  0  0  0  0  0  0
    5.5266   21.1232   22.2022 H   0  0  0  0  0  0  0  0  0  0  0  0
    5.3655   21.1473   16.7570 H   0  0  0  0  0  0  0  0  0  0  0  0
    6.5376   18.3249   15.8849 C   0  0  0  0  0  0  0  0  0  0  0  0
    6.5838   18.0918   14.5066 C   0  0  0  0  0  0  0  0  0  0  0  0
    5.4186   18.2177   13.7623 C   0  0  0  0  0  0  0  0  0  0  0  0
    4.2201   18.5612   14.3837 C   0  0  0  0  0  0  0  0  0  0  0  0
    4.1638   18.7949   15.7516 C   0  0  0  0  0  0  0  0  0  0  0  0
    5.3328   18.6904   16.5145 C   0  0  0  0  0  0  0  0  0  0  0  0
    3.0794   18.6796   13.6424 O   0  0  0  0  0  0  0  0  0  0  0  0
    5.3984   18.0158   12.4108 O   0  0  0  0  0  0  0  0  0  0  0  0
    3.3541   18.4670   12.7278 H   0  0  0  0  0  0  0  0  0  0  0  0
    6.2994   17.7908   12.1204 H   0  0  0  0  0  0  0  0  0  0  0  0
 18 19  2  0  0  0
 19 20  1  0  0  0
 20 21  2  0  0  0
 21 22  1  0  0  0
 22 23  2  0  0  0
 18 23  1  0  0  0
 23  1  1  0  0  0
  1  2  2  0  0  0
  2  3  1  0  0  0
  3  4  2  0  0  0
  3  5  1  0  0  0
  5  6  2  0  0  0
  6  7  1  0  0  0
  7  8  2  0  0  0
  8  9  1  0  0  0
  9 10  2  0  0  0
  5 10  1  0  0  0
 10 11  1  0  0  0
  1 11  1  0  0  0
  8 12  1  0  0  0
  6 13  1  0  0  0
  2 14  1  0  0  0
 21 24  1  0  0  0
 20 25  1  0  0  0
 12 15  1  0  0  0
 13 16  1  0  0  0
 14 17  1  0  0  0
 24 26  1  0  0  0
 25 27  1  0  0  0
M  END
> <minimizedAffinity>
-6.36829

$$$$
Quercetin


 27 29  0  0  0  0  0  0  0  0999 V2000
    4.5457   17.8639   17.1754 C   0  0  0  0  0  0  0  0  0  0  0  0
    4.3145   16.6659   17.7501 C   0  0  0  0  0  0  0  0  0  0  0  0
    4.4209   16.5741   19.2313 C   0  0  0  0  0  0  0  0  0  0  0  0
    4.2130   15.5358   19.8549 O   0  0  0  0  0  0  0  0  0  0  0  0
    4.7908   17.7963   19.9543 C   0  0  0  0  0  0  0  0  0  0  0  0
    4.9079   17.8149   21.3496 C   0  0  0  0  0  0  0  0  0  0  0  0
    5.2635   18.9876   22.0111 C   0  0  0  0  0  0  0  0  0  0  0  0
    5.5031   20.1387   21.2664 C   0  0  0  0  0  0  0  0  0  0  0  0
    5.3891   20.1329   19.8785 C   0  0  0  0  0  0  0  0  0  0  0  0
    5.0281   18.9559   19.2223 C   0  0  0  0  0  0  0  0  0  0  0  0
    4.9187   19.0106   17.8567 O   0  0  0  0  0  0  0  0  0  0  0  0
    5.8545   21.3104   21.8687 O   0  0  0  0  0  0  0  0  0  0  0  0
    4.6842   16.7132   22.1317 O   0  0  0  0  0  0  0  0  0  0  0  0
    3.9859   15.5107   17.0624 O   0  0  0  0  0  0  0  0  0  0  0  0
    5.8954   21.1690   22.8300 H   0  0  0  0  0  0  0  0  0  0  0  0
    4.4488   15.9610   21.5400 H   0  0  0  0  0  0  0  0  0  0  0  0
    4.1190   15.6567   16.1109 H   0  0  0  0  0  0  0  0  0  0  0  0
    5.5656   18.1516   14.9109 C   0  0  0  0  0  0  0  0  0  0  0  0
    5.4559   18.3894   13.5371 C   0  0  0  0  0  0  0  0  0  0  0  0
    4.1942   18.5437   12.9783 C   0  0  0  0  0  0  0  0  0  0  0  0
    3.0555   18.4520   13.7755 C   0  0  0  0  0  0  0  0  0  0  0  0
    3.1537   18.2164   15.1406 C   0  0  0  0  0  0  0  0  0  0  0  0
    4.4187   18.0767   15.7237 C   0  0  0  0  0  0  0  0  0  0  0  0
    1.8194   18.6027   13.2150 O   0  0  0  0  0  0  0  0  0  0  0  0
    4.0187   18.7902   11.6456 O   0  0  0  0  0  0  0  0  0  0  0  0
    1.9939   18.7493   12.2636 H   0  0  0  0  0  0  0  0  0  0  0  0
    4.8942   18.8328   11.2232 H   0  0  0  0  0  0  0  0  0  0  0  0
 18 19  2  0  0  0
 19 20  1  0  0  0
 20 21  2  0  0  0
 21 22  1  0  0  0
 22 23  2  0  0  0
 18 23  1  0  0  0
 23  1  1  0  0  0
  1  2  2  0  0  0
  2  3  1  0  0  0
  3  4  2  0  0  0
  3  5  1  0  0  0
  5  6  2  0  0  0
  6  7  1  0  0  0
  7  8  2  0  0  0
  8  9  1  0  0  0
  9 10  2  0  0  0
  5 10  1  0  0  0
 10 11  1  0  0  0
  1 11  1  0  0  0
  8 12  1  0  0  0
  6 13  1  0  0  0
  2 14  1  0  0  0
 21 24  1  0  0  0
 20 25  1  0  0  0
 12 15  1  0  0  0
 13 16  1  0  0  0
 14 17  1  0  0  0
 24 26  1  0  0  0
 25 27  1  0  0  0
M  END
> <minimizedAffinity>
-5.78976

$$$$
