Quercetin


 27 29  0  0  0  0  0  0  0  0999 V2000
   31.0920   19.5019   -6.8355 C   0  0  0  0  0  0  0  0  0  0  0  0
   30.6719   19.8809   -8.0598 C   0  0  0  0  0  0  0  0  0  0  0  0
   30.2450   21.2947   -8.2408 C   0  0  0  0  0  0  0  0  0  0  0  0
   29.8626   21.7464   -9.3177 O   0  0  0  0  0  0  0  0  0  0  0  0
   30.2956   22.1668   -7.0618 C   0  0  0  0  0  0  0  0  0  0  0  0
   29.9233   23.5149   -7.1314 C   0  0  0  0  0  0  0  0  0  0  0  0
   29.9776   24.3203   -5.9966 C   0  0  0  0  0  0  0  0  0  0  0  0
   30.4041   23.7662   -4.7932 C   0  0  0  0  0  0  0  0  0  0  0  0
   30.7775   22.4271   -4.7116 C   0  0  0  0  0  0  0  0  0  0  0  0
   30.7252   21.6268   -5.8531 C   0  0  0  0  0  0  0  0  0  0  0  0
   31.1160   20.3197   -5.7179 O   0  0  0  0  0  0  0  0  0  0  0  0
   30.4734   24.5141   -3.6553 O   0  0  0  0  0  0  0  0  0  0  0  0
   29.4964   24.1121   -8.2875 O   0  0  0  0  0  0  0  0  0  0  0  0
   30.6065   19.0495   -9.1642 O   0  0  0  0  0  0  0  0  0  0  0  0
   30.1864   25.4210   -3.8581 H   0  0  0  0  0  0  0  0  0  0  0  0
   29.5012   23.4333   -9.0020 H   0  0  0  0  0  0  0  0  0  0  0  0
   30.7399   18.1298   -8.8801 H   0  0  0  0  0  0  0  0  0  0  0  0
   30.7676   17.2121   -5.8857 C   0  0  0  0  0  0  0  0  0  0  0  0
   31.2386   15.9294   -5.5874 C   0  0  0  0  0  0  0  0  0  0  0  0
   32.5251   15.5772   -5.9730 C   0  0  0  0  0  0  0  0  0  0  0  0
   33.3290   16.4870   -6.6561 C   0  0  0  0  0  0  0  0  0  0  0  0
   32.8707   17.7630   -6.9568 C   0  0  0  0  0  0  0  0  0  0  0  0
   31.5828   18.1411   -6.5594 C   0  0  0  0  0  0  0  0  0  0  0  0
   34.5918   16.1291   -7.0330 O   0  0  0  0  0  0  0  0  0  0  0  0
   33.0496   14.3448   -5.7013 O   0  0  0  0  0  0  0  0  0  0  0  0
   34.6899   15.2049   -6.7276 H   0  0  0  0  0  0  0  0  0  0  0  0
   32.3818   13.8261   -5.2199 H   0  0  0  0  0  0  0  0  0  0  0  0
 18 19  2  0  0  0
 19 20  1  0  0  0
 20 21  2  0  0  0
 21 22  1  0  0  0
 22 23  2  0  0  0
 18 23  1  0  0  0
 23  1  1  0  0  0
  1  2  2  0  0  0
  2  3  1  0  0  0
  3  4  2  0  0  0
  3  5  1  0  0  0
  5  6  2  0  0  0
  6  7  1  0  0  0
  7  8  2  0  0  0
  8  9  1  0  0  0
  9 10  2  0  0  0
  5 10  1  0  0  0
 10 11  1  0  0  0
  1 11  1  0  0  0
  8 12  1  0  0  0
  6 13  1  0  0  0
  2 14  1  0  0  0
 21 24  1  0  0  0
 20 25  1  0  0  0
 12 15  1  0  0  0
 13 16  1  0  0  0
 14 17  1  0  0  0
 24 26  1  0  0  0
 25 27  1  0  0  0
M  END
> <minimizedAffinity>
-6.45633

$$$$
Quercetin


 27 29  0  0  0  0  0  0  0  0999 V2000
   31.4865   16.2892   -6.0244 C   0  0  0  0  0  0  0  0  0  0  0  0
   31.0478   15.7424   -7.1766 C   0  0  0  0  0  0  0  0  0  0  0  0
   31.6254   14.4347   -7.5890 C   0  0  0  0  0  0  0  0  0  0  0  0
   31.2827   13.8430   -8.6101 O   0  0  0  0  0  0  0  0  0  0  0  0
   32.6477   13.8476   -6.7153 C   0  0  0  0  0  0  0  0  0  0  0  0
   33.2450   12.6162   -7.0115 C   0  0  0  0  0  0  0  0  0  0  0  0
   34.2154   12.0826   -6.1670 C   0  0  0  0  0  0  0  0  0  0  0  0
   34.5843   12.7911   -5.0273 C   0  0  0  0  0  0  0  0  0  0  0  0
   33.9970   14.0161   -4.7217 C   0  0  0  0  0  0  0  0  0  0  0  0
   33.0223   14.5431   -5.5694 C   0  0  0  0  0  0  0  0  0  0  0  0
   32.4691   15.7459   -5.2135 O   0  0  0  0  0  0  0  0  0  0  0  0
   35.5299   12.3101   -4.1707 O   0  0  0  0  0  0  0  0  0  0  0  0
   32.9211   11.8769   -8.1179 O   0  0  0  0  0  0  0  0  0  0  0  0
   30.0979   16.3097   -8.0082 O   0  0  0  0  0  0  0  0  0  0  0  0
   35.8503   11.4550   -4.5053 H   0  0  0  0  0  0  0  0  0  0  0  0
   32.2337   12.3695   -8.6240 H   0  0  0  0  0  0  0  0  0  0  0  0
   29.9324   17.2249   -7.7264 H   0  0  0  0  0  0  0  0  0  0  0  0
   29.7331   17.5700   -4.7851 C   0  0  0  0  0  0  0  0  0  0  0  0
   29.1944   18.7716   -4.3140 C   0  0  0  0  0  0  0  0  0  0  0  0
   29.8779   19.9563   -4.5529 C   0  0  0  0  0  0  0  0  0  0  0  0
   31.0878   19.9439   -5.2432 C   0  0  0  0  0  0  0  0  0  0  0  0
   31.6311   18.7561   -5.7152 C   0  0  0  0  0  0  0  0  0  0  0  0
   30.9461   17.5545   -5.4992 C   0  0  0  0  0  0  0  0  0  0  0  0
   31.7530   21.1147   -5.4702 O   0  0  0  0  0  0  0  0  0  0  0  0
   29.3998   21.1649   -4.1304 O   0  0  0  0  0  0  0  0  0  0  0  0
   31.1974   21.8018   -5.0504 H   0  0  0  0  0  0  0  0  0  0  0  0
   28.5533   21.0178   -3.6739 H   0  0  0  0  0  0  0  0  0  0  0  0
 18 19  2  0  0  0
 19 20  1  0  0  0
 20 21  2  0  0  0
 21 22  1  0  0  0
 22 23  2  0  0  0
 18 23  1  0  0  0
 23  1  1  0  0  0
  1  2  2  0  0  0
  2  3  1  0  0  0
  3  4  2  0  0  0
  3  5  1  0  0  0
  5  6  2  0  0  0
  6  7  1  0  0  0
  7  8  2  0  0  0
  8  9  1  0  0  0
  9 10  2  0  0  0
  5 10  1  0  0  0
 10 11  1  0  0  0
  1 11  1  0  0  0
  8 12  1  0  0  0
  6 13  1  0  0  0
  2 14  1  0  0  0
 21 24  1  0  0  0
 20 25  1  0  0  0
 12 15  1  0  0  0
 13 16  1  0  0  0
 14 17  1  0  0  0
 24 26  1  0  0  0
 25 27  1  0  0  0
M  END
> <minimizedAffinity>
-6.00183

$$$$
Quercetin


 27 29  0  0  0  0  0  0  0  0999 V2000
   31.5195   17.7914   -5.8747 C   0  0  0  0  0  0  0  0  0  0  0  0
   30.4772   18.2143   -5.1305 C   0  0  0  0  0  0  0  0  0  0  0  0
   30.2999   19.6809   -4.9535 C   0  0  0  0  0  0  0  0  0  0  0  0
   29.3746   20.1711   -4.3105 O   0  0  0  0  0  0  0  0  0  0  0  0
   31.2899   20.5578   -5.5894 C   0  0  0  0  0  0  0  0  0  0  0  0
   31.2051   21.9519   -5.4890 C   0  0  0  0  0  0  0  0  0  0  0  0
   32.1598   22.7615   -6.0995 C   0  0  0  0  0  0  0  0  0  0  0  0
   33.1993   22.1658   -6.8077 C   0  0  0  0  0  0  0  0  0  0  0  0
   33.2939   20.7806   -6.9152 C   0  0  0  0  0  0  0  0  0  0  0  0
   32.3318   19.9754   -6.3051 C   0  0  0  0  0  0  0  0  0  0  0  0
   32.4670   18.6192   -6.4538 O   0  0  0  0  0  0  0  0  0  0  0  0
   34.1580   22.9162   -7.4218 O   0  0  0  0  0  0  0  0  0  0  0  0
   30.2053   22.5912   -4.8056 O   0  0  0  0  0  0  0  0  0  0  0  0
   29.5576   17.3828   -4.5155 O   0  0  0  0  0  0  0  0  0  0  0  0
   33.9678   23.8570   -7.2654 H   0  0  0  0  0  0  0  0  0  0  0  0
   29.6096   21.9055   -4.4232 H   0  0  0  0  0  0  0  0  0  0  0  0
   29.8774   16.4661   -4.5578 H   0  0  0  0  0  0  0  0  0  0  0  0
   31.1628   15.7479   -7.2703 C   0  0  0  0  0  0  0  0  0  0  0  0
   31.3550   14.3859   -7.5231 C   0  0  0  0  0  0  0  0  0  0  0  0
   32.1516   13.6459   -6.6597 C   0  0  0  0  0  0  0  0  0  0  0  0
   32.7579   14.2564   -5.5641 C   0  0  0  0  0  0  0  0  0  0  0  0
   32.5732   15.6081   -5.3043 C   0  0  0  0  0  0  0  0  0  0  0  0
   31.7582   16.3653   -6.1542 C   0  0  0  0  0  0  0  0  0  0  0  0
   33.5417   13.5196   -4.7229 O   0  0  0  0  0  0  0  0  0  0  0  0
   32.3693   12.3092   -6.8432 O   0  0  0  0  0  0  0  0  0  0  0  0
   33.5314   12.6171   -5.1001 H   0  0  0  0  0  0  0  0  0  0  0  0
   31.8823   12.0247   -7.6360 H   0  0  0  0  0  0  0  0  0  0  0  0
 18 19  2  0  0  0
 19 20  1  0  0  0
 20 21  2  0  0  0
 21 22  1  0  0  0
 22 23  2  0  0  0
 18 23  1  0  0  0
 23  1  1  0  0  0
  1  2  2  0  0  0
  2  3  1  0  0  0
  3  4  2  0  0  0
  3  5  1  0  0  0
  5  6  2  0  0  0
  6  7  1  0  0  0
  7  8  2  0  0  0
  8  9  1  0  0  0
  9 10  2  0  0  0
  5 10  1  0  0  0
 10 11  1  0  0  0
  1 11  1  0  0  0
  8 12  1  0  0  0
  6 13  1  0  0  0
  2 14  1  0  0  0
 21 24  1  0  0  0
 20 25  1  0  0  0
 12 15  1  0  0  0
 13 16  1  0  0  0
 14 17  1  0  0  0
 24 26  1  0  0  0
 25 27  1  0  0  0
M  END
> <minimizedAffinity>
-5.97240

$$$$
Quercetin


 27 29  0  0  0  0  0  0  0  0999 V2000
   37.9192   13.3420   -4.1680 C   0  0  0  0  0  0  0  0  0  0  0  0
   39.0825   12.6637   -4.0935 C   0  0  0  0  0  0  0  0  0  0  0  0
   40.2270   13.3211   -3.4067 C   0  0  0  0  0  0  0  0  0  0  0  0
   41.3236   12.7840   -3.2685 O   0  0  0  0  0  0  0  0  0  0  0  0
   40.0059   14.6720   -2.8781 C   0  0  0  0  0  0  0  0  0  0  0  0
   41.0173   15.3708   -2.2077 C   0  0  0  0  0  0  0  0  0  0  0  0
   40.7822   16.6533   -1.7185 C   0  0  0  0  0  0  0  0  0  0  0  0
   39.5301   17.2307   -1.9073 C   0  0  0  0  0  0  0  0  0  0  0  0
   38.5161   16.5455   -2.5717 C   0  0  0  0  0  0  0  0  0  0  0  0
   38.7566   15.2592   -3.0554 C   0  0  0  0  0  0  0  0  0  0  0  0
   37.7191   14.6266   -3.6902 O   0  0  0  0  0  0  0  0  0  0  0  0
   39.2523   18.4839   -1.4472 O   0  0  0  0  0  0  0  0  0  0  0  0
   42.2666   14.8522   -1.9938 O   0  0  0  0  0  0  0  0  0  0  0  0
   39.2926   11.3977   -4.6116 O   0  0  0  0  0  0  0  0  0  0  0  0
   40.0439   18.8393   -1.0080 H   0  0  0  0  0  0  0  0  0  0  0  0
   42.2960   13.9514   -2.3924 H   0  0  0  0  0  0  0  0  0  0  0  0
   38.5407   11.1553   -5.1775 H   0  0  0  0  0  0  0  0  0  0  0  0
   36.0970   13.3975   -5.8789 C   0  0  0  0  0  0  0  0  0  0  0  0
   34.9290   12.8762   -6.4447 C   0  0  0  0  0  0  0  0  0  0  0  0
   34.3824   11.7157   -5.9136 C   0  0  0  0  0  0  0  0  0  0  0  0
   34.9966   11.0761   -4.8392 C   0  0  0  0  0  0  0  0  0  0  0  0
   36.1565   11.5857   -4.2702 C   0  0  0  0  0  0  0  0  0  0  0  0
   36.7110   12.7651   -4.7814 C   0  0  0  0  0  0  0  0  0  0  0  0
   34.4519    9.9337   -4.3264 O   0  0  0  0  0  0  0  0  0  0  0  0
   33.2367   11.1620   -6.4121 O   0  0  0  0  0  0  0  0  0  0  0  0
   33.6620    9.7653   -4.8785 H   0  0  0  0  0  0  0  0  0  0  0  0
   32.9225   11.7161   -7.1476 H   0  0  0  0  0  0  0  0  0  0  0  0
 18 19  2  0  0  0
 19 20  1  0  0  0
 20 21  2  0  0  0
 21 22  1  0  0  0
 22 23  2  0  0  0
 18 23  1  0  0  0
 23  1  1  0  0  0
  1  2  2  0  0  0
  2  3  1  0  0  0
  3  4  2  0  0  0
  3  5  1  0  0  0
  5  6  2  0  0  0
  6  7  1  0  0  0
  7  8  2  0  0  0
  8  9  1  0  0  0
  9 10  2  0  0  0
  5 10  1  0  0  0
 10 11  1  0  0  0
  1 11  1  0  0  0
  8 12  1  0  0  0
  6 13  1  0  0  0
  2 14  1  0  0  0
 21 24  1  0  0  0
 20 25  1  0  0  0
 12 15  1  0  0  0
 13 16  1  0  0  0
 14 17  1  0  0  0
 24 26  1  0  0  0
 25 27  1  0  0  0
M  END
> <minimizedAffinity>
-5.93998

$$$$
Quercetin


 27 29  0  0  0  0  0  0  0  0999 V2000
   37.4895   14.6455   -4.6061 C   0  0  0  0  0  0  0  0  0  0  0  0
   37.5682   13.3350   -4.2974 C   0  0  0  0  0  0  0  0  0  0  0  0
   36.4568   12.4495   -4.7384 C   0  0  0  0  0  0  0  0  0  0  0  0
   36.4390   11.2396   -4.5245 O   0  0  0  0  0  0  0  0  0  0  0  0
   35.3454   13.0778   -5.4617 C   0  0  0  0  0  0  0  0  0  0  0  0
   34.2572   12.3288   -5.9262 C   0  0  0  0  0  0  0  0  0  0  0  0
   33.2135   12.9503   -6.6073 C   0  0  0  0  0  0  0  0  0  0  0  0
   33.2663   14.3251   -6.8174 C   0  0  0  0  0  0  0  0  0  0  0  0
   34.3434   15.0805   -6.3610 C   0  0  0  0  0  0  0  0  0  0  0  0
   35.3878   14.4511   -5.6833 C   0  0  0  0  0  0  0  0  0  0  0  0
   36.4283   15.2412   -5.2675 O   0  0  0  0  0  0  0  0  0  0  0  0
   32.2685   14.9784   -7.4782 O   0  0  0  0  0  0  0  0  0  0  0  0
   34.1530   10.9750   -5.7478 O   0  0  0  0  0  0  0  0  0  0  0  0
   38.6088   12.7502   -3.5969 O   0  0  0  0  0  0  0  0  0  0  0  0
   31.5887   14.3329   -7.7371 H   0  0  0  0  0  0  0  0  0  0  0  0
   34.9480   10.6700   -5.2516 H   0  0  0  0  0  0  0  0  0  0  0  0
   39.1713   13.4470   -3.2197 H   0  0  0  0  0  0  0  0  0  0  0  0
   39.6301   15.8190   -5.1459 C   0  0  0  0  0  0  0  0  0  0  0  0
   40.6667   16.6961   -4.8109 C   0  0  0  0  0  0  0  0  0  0  0  0
   40.6215   17.3589   -3.5917 C   0  0  0  0  0  0  0  0  0  0  0  0
   39.5525   17.1589   -2.7212 C   0  0  0  0  0  0  0  0  0  0  0  0
   38.5184   16.2900   -3.0444 C   0  0  0  0  0  0  0  0  0  0  0  0
   38.5571   15.5996   -4.2615 C   0  0  0  0  0  0  0  0  0  0  0  0
   39.5168   17.8180   -1.5257 O   0  0  0  0  0  0  0  0  0  0  0  0
   41.6082   18.2191   -3.1992 O   0  0  0  0  0  0  0  0  0  0  0  0
   40.3270   18.3663   -1.5198 H   0  0  0  0  0  0  0  0  0  0  0  0
   42.2832   18.2523   -3.8991 H   0  0  0  0  0  0  0  0  0  0  0  0
 18 19  2  0  0  0
 19 20  1  0  0  0
 20 21  2  0  0  0
 21 22  1  0  0  0
 22 23  2  0  0  0
 18 23  1  0  0  0
 23  1  1  0  0  0
  1  2  2  0  0  0
  2  3  1  0  0  0
  3  4  2  0  0  0
  3  5  1  0  0  0
  5  6  2  0  0  0
  6  7  1  0  0  0
  7  8  2  0  0  0
  8  9  1  0  0  0
  9 10  2  0  0  0
  5 10  1  0  0  0
 10 11  1  0  0  0
  1 11  1  0  0  0
  8 12  1  0  0  0
  6 13  1  0  0  0
  2 14  1  0  0  0
 21 24  1  0  0  0
 20 25  1  0  0  0
 12 15  1  0  0  0
 13 16  1  0  0  0
 14 17  1  0  0  0
 24 26  1  0  0  0
 25 27  1  0  0  0
M  END
> <minimizedAffinity>
-5.64336

$$$$
