Quercetin


 27 29  0  0  0  0  0  0  0  0999 V2000
   15.4912   13.8089   24.1621 C   0  0  0  0  0  0  0  0  0  0  0  0
   15.7309   14.9771   23.5322 C   0  0  0  0  0  0  0  0  0  0  0  0
   16.8240   15.8385   24.0585 C   0  0  0  0  0  0  0  0  0  0  0  0
   17.1354   16.9123   23.5485 O   0  0  0  0  0  0  0  0  0  0  0  0
   17.5474   15.3567   25.2408 C   0  0  0  0  0  0  0  0  0  0  0  0
   18.5979   16.0901   25.8060 C   0  0  0  0  0  0  0  0  0  0  0  0
   19.2660   15.6117   26.9303 C   0  0  0  0  0  0  0  0  0  0  0  0
   18.8736   14.3971   27.4850 C   0  0  0  0  0  0  0  0  0  0  0  0
   17.8309   13.6584   26.9316 C   0  0  0  0  0  0  0  0  0  0  0  0
   17.1686   14.1410   25.8026 C   0  0  0  0  0  0  0  0  0  0  0  0
   16.1585   13.3670   25.2925 O   0  0  0  0  0  0  0  0  0  0  0  0
   19.4966   13.8880   28.5858 O   0  0  0  0  0  0  0  0  0  0  0  0
   19.0256   17.2897   25.3025 O   0  0  0  0  0  0  0  0  0  0  0  0
   15.0325   15.4372   22.4295 O   0  0  0  0  0  0  0  0  0  0  0  0
   20.1979   14.5027   28.8617 H   0  0  0  0  0  0  0  0  0  0  0  0
   18.4681   17.5090   24.5200 H   0  0  0  0  0  0  0  0  0  0  0  0
   14.2469   14.8814   22.2944 H   0  0  0  0  0  0  0  0  0  0  0  0
   13.4590   12.4105   24.5682 C   0  0  0  0  0  0  0  0  0  0  0  0
   12.5038   11.4815   24.1430 C   0  0  0  0  0  0  0  0  0  0  0  0
   12.5563   11.0100   22.8381 C   0  0  0  0  0  0  0  0  0  0  0  0
   13.5410   11.4653   21.9643 C   0  0  0  0  0  0  0  0  0  0  0  0
   14.4940   12.3875   22.3768 C   0  0  0  0  0  0  0  0  0  0  0  0
   14.4671   12.8596   23.6944 C   0  0  0  0  0  0  0  0  0  0  0  0
   13.5816   10.9969   20.6822 O   0  0  0  0  0  0  0  0  0  0  0  0
   11.6608   10.0928   22.3641 O   0  0  0  0  0  0  0  0  0  0  0  0
   12.8264   10.3781   20.6195 H   0  0  0  0  0  0  0  0  0  0  0  0
   11.0438    9.8667   23.0816 H   0  0  0  0  0  0  0  0  0  0  0  0
 18 19  2  0  0  0
 19 20  1  0  0  0
 20 21  2  0  0  0
 21 22  1  0  0  0
 22 23  2  0  0  0
 18 23  1  0  0  0
 23  1  1  0  0  0
  1  2  2  0  0  0
  2  3  1  0  0  0
  3  4  2  0  0  0
  3  5  1  0  0  0
  5  6  2  0  0  0
  6  7  1  0  0  0
  7  8  2  0  0  0
  8  9  1  0  0  0
  9 10  2  0  0  0
  5 10  1  0  0  0
 10 11  1  0  0  0
  1 11  1  0  0  0
  8 12  1  0  0  0
  6 13  1  0  0  0
  2 14  1  0  0  0
 21 24  1  0  0  0
 20 25  1  0  0  0
 12 15  1  0  0  0
 13 16  1  0  0  0
 14 17  1  0  0  0
 24 26  1  0  0  0
 25 27  1  0  0  0
M  END
> <minimizedAffinity>
-7.23705

$$$$
Quercetin


 27 29  0  0  0  0  0  0  0  0999 V2000
   18.6232   13.4781   23.3830 C   0  0  0  0  0  0  0  0  0  0  0  0
   17.9441   14.5159   22.8531 C   0  0  0  0  0  0  0  0  0  0  0  0
   16.4696   14.5535   23.0486 C   0  0  0  0  0  0  0  0  0  0  0  0
   15.7602   15.4621   22.6228 O   0  0  0  0  0  0  0  0  0  0  0  0
   15.8627   13.4420   23.7899 C   0  0  0  0  0  0  0  0  0  0  0  0
   14.4848   13.3903   24.0342 C   0  0  0  0  0  0  0  0  0  0  0  0
   13.9337   12.3222   24.7377 C   0  0  0  0  0  0  0  0  0  0  0  0
   14.7705   11.3070   25.1916 C   0  0  0  0  0  0  0  0  0  0  0  0
   16.1423   11.3475   24.9555 C   0  0  0  0  0  0  0  0  0  0  0  0
   16.6887   12.4226   24.2540 C   0  0  0  0  0  0  0  0  0  0  0  0
   18.0461   12.4173   24.0612 O   0  0  0  0  0  0  0  0  0  0  0  0
   14.2777   10.2407   25.8841 O   0  0  0  0  0  0  0  0  0  0  0  0
   13.6154   14.3602   23.6114 O   0  0  0  0  0  0  0  0  0  0  0  0
   18.5182   15.5518   22.1370 O   0  0  0  0  0  0  0  0  0  0  0  0
   13.3149   10.3434   25.9746 H   0  0  0  0  0  0  0  0  0  0  0  0
   14.1332   15.0451   23.1277 H   0  0  0  0  0  0  0  0  0  0  0  0
   19.4404   15.3249   21.9310 H   0  0  0  0  0  0  0  0  0  0  0  0
   20.8934   13.5985   24.4232 C   0  0  0  0  0  0  0  0  0  0  0  0
   22.2878   13.5324   24.3366 C   0  0  0  0  0  0  0  0  0  0  0  0
   22.8736   13.2280   23.1152 C   0  0  0  0  0  0  0  0  0  0  0  0
   22.0811   12.9821   21.9964 C   0  0  0  0  0  0  0  0  0  0  0  0
   20.6958   13.0454   22.0719 C   0  0  0  0  0  0  0  0  0  0  0  0
   20.0890   13.3690   23.2911 C   0  0  0  0  0  0  0  0  0  0  0  0
   22.6678   12.6808   20.8006 O   0  0  0  0  0  0  0  0  0  0  0  0
   24.2298   13.1601   22.9606 O   0  0  0  0  0  0  0  0  0  0  0  0
   23.6283   12.6864   20.9864 H   0  0  0  0  0  0  0  0  0  0  0  0
   24.6469   13.3589   23.8168 H   0  0  0  0  0  0  0  0  0  0  0  0
 18 19  2  0  0  0
 19 20  1  0  0  0
 20 21  2  0  0  0
 21 22  1  0  0  0
 22 23  2  0  0  0
 18 23  1  0  0  0
 23  1  1  0  0  0
  1  2  2  0  0  0
  2  3  1  0  0  0
  3  4  2  0  0  0
  3  5  1  0  0  0
  5  6  2  0  0  0
  6  7  1  0  0  0
  7  8  2  0  0  0
  8  9  1  0  0  0
  9 10  2  0  0  0
  5 10  1  0  0  0
 10 11  1  0  0  0
  1 11  1  0  0  0
  8 12  1  0  0  0
  6 13  1  0  0  0
  2 14  1  0  0  0
 21 24  1  0  0  0
 20 25  1  0  0  0
 12 15  1  0  0  0
 13 16  1  0  0  0
 14 17  1  0  0  0
 24 26  1  0  0  0
 25 27  1  0  0  0
M  END
> <minimizedAffinity>
-6.95002

$$$$
Quercetin


 27 29  0  0  0  0  0  0  0  0999 V2000
   18.5487   15.0004   26.0357 C   0  0  0  0  0  0  0  0  0  0  0  0
   18.2462   16.0816   25.2884 C   0  0  0  0  0  0  0  0  0  0  0  0
   17.2028   15.9304   24.2385 C   0  0  0  0  0  0  0  0  0  0  0  0
   16.8404   16.8559   23.5159 O   0  0  0  0  0  0  0  0  0  0  0  0
   16.5947   14.6040   24.0833 C   0  0  0  0  0  0  0  0  0  0  0  0
   15.5979   14.3622   23.1300 C   0  0  0  0  0  0  0  0  0  0  0  0
   15.0394   13.0930   23.0011 C   0  0  0  0  0  0  0  0  0  0  0  0
   15.4873   12.0691   23.8304 C   0  0  0  0  0  0  0  0  0  0  0  0
   16.4774   12.2974   24.7827 C   0  0  0  0  0  0  0  0  0  0  0  0
   17.0297   13.5722   24.9098 C   0  0  0  0  0  0  0  0  0  0  0  0
   17.9915   13.7430   25.8718 O   0  0  0  0  0  0  0  0  0  0  0  0
   14.9717   10.8100   23.7414 O   0  0  0  0  0  0  0  0  0  0  0  0
   15.1198   15.3311   22.2885 O   0  0  0  0  0  0  0  0  0  0  0  0
   18.8369   17.3258   25.4247 O   0  0  0  0  0  0  0  0  0  0  0  0
   14.2962   10.7964   23.0418 H   0  0  0  0  0  0  0  0  0  0  0  0
   15.6012   16.1690   22.4823 H   0  0  0  0  0  0  0  0  0  0  0  0
   19.6091   17.2503   26.0098 H   0  0  0  0  0  0  0  0  0  0  0  0
   20.8758   14.7132   26.9033 C   0  0  0  0  0  0  0  0  0  0  0  0
   21.8062   14.7256   27.9474 C   0  0  0  0  0  0  0  0  0  0  0  0
   21.3861   15.0872   29.2204 C   0  0  0  0  0  0  0  0  0  0  0  0
   20.0586   15.4421   29.4491 C   0  0  0  0  0  0  0  0  0  0  0  0
   19.1270   15.4328   28.4191 C   0  0  0  0  0  0  0  0  0  0  0  0
   19.5293   15.0531   27.1332 C   0  0  0  0  0  0  0  0  0  0  0  0
   19.6568   15.7987   30.7046 O   0  0  0  0  0  0  0  0  0  0  0  0
   22.2419   15.1077   30.2858 O   0  0  0  0  0  0  0  0  0  0  0  0
   20.4662   15.7396   31.2509 H   0  0  0  0  0  0  0  0  0  0  0  0
   23.1230   14.8336   29.9773 H   0  0  0  0  0  0  0  0  0  0  0  0
 18 19  2  0  0  0
 19 20  1  0  0  0
 20 21  2  0  0  0
 21 22  1  0  0  0
 22 23  2  0  0  0
 18 23  1  0  0  0
 23  1  1  0  0  0
  1  2  2  0  0  0
  2  3  1  0  0  0
  3  4  2  0  0  0
  3  5  1  0  0  0
  5  6  2  0  0  0
  6  7  1  0  0  0
  7  8  2  0  0  0
  8  9  1  0  0  0
  9 10  2  0  0  0
  5 10  1  0  0  0
 10 11  1  0  0  0
  1 11  1  0  0  0
  8 12  1  0  0  0
  6 13  1  0  0  0
  2 14  1  0  0  0
 21 24  1  0  0  0
 20 25  1  0  0  0
 12 15  1  0  0  0
 13 16  1  0  0  0
 14 17  1  0  0  0
 24 26  1  0  0  0
 25 27  1  0  0  0
M  END
> <minimizedAffinity>
-6.77806

$$$$
Quercetin


 27 29  0  0  0  0  0  0  0  0999 V2000
   19.0098   13.3761   24.1227 C   0  0  0  0  0  0  0  0  0  0  0  0
   18.8896   14.3414   25.0569 C   0  0  0  0  0  0  0  0  0  0  0  0
   17.5367   14.5975   25.6209 C   0  0  0  0  0  0  0  0  0  0  0  0
   17.3211   15.4408   26.4883 O   0  0  0  0  0  0  0  0  0  0  0  0
   16.4287   13.7890   25.0996 C   0  0  0  0  0  0  0  0  0  0  0  0
   15.1202   13.9479   25.5724 C   0  0  0  0  0  0  0  0  0  0  0  0
   14.0860   13.1699   25.0583 C   0  0  0  0  0  0  0  0  0  0  0  0
   14.3706   12.2350   24.0673 C   0  0  0  0  0  0  0  0  0  0  0  0
   15.6678   12.0672   23.5896 C   0  0  0  0  0  0  0  0  0  0  0  0
   16.7002   12.8467   24.1120 C   0  0  0  0  0  0  0  0  0  0  0  0
   17.9591   12.6307   23.6139 O   0  0  0  0  0  0  0  0  0  0  0  0
   13.3917   11.4507   23.5327 O   0  0  0  0  0  0  0  0  0  0  0  0
   14.7831   14.8513   26.5449 O   0  0  0  0  0  0  0  0  0  0  0  0
   19.9342   15.1157   25.5309 O   0  0  0  0  0  0  0  0  0  0  0  0
   12.5451   11.6733   23.9563 H   0  0  0  0  0  0  0  0  0  0  0  0
   15.6007   15.3328   26.8115 H   0  0  0  0  0  0  0  0  0  0  0  0
   20.7150   14.9769   24.9693 H   0  0  0  0  0  0  0  0  0  0  0  0
   21.2425   12.2622   24.2805 C   0  0  0  0  0  0  0  0  0  0  0  0
   22.4931   11.9391   23.7442 C   0  0  0  0  0  0  0  0  0  0  0  0
   22.8033   12.3579   22.4573 C   0  0  0  0  0  0  0  0  0  0  0  0
   21.8762   13.0804   21.7097 C   0  0  0  0  0  0  0  0  0  0  0  0
   20.6318   13.4064   22.2331 C   0  0  0  0  0  0  0  0  0  0  0  0
   20.3094   13.0080   23.5358 C   0  0  0  0  0  0  0  0  0  0  0  0
   22.1907   13.4850   20.4439 O   0  0  0  0  0  0  0  0  0  0  0  0
   24.0117   12.0859   21.8798 O   0  0  0  0  0  0  0  0  0  0  0  0
   23.0944   13.1430   20.2909 H   0  0  0  0  0  0  0  0  0  0  0  0
   24.5509   11.5857   22.5168 H   0  0  0  0  0  0  0  0  0  0  0  0
 18 19  2  0  0  0
 19 20  1  0  0  0
 20 21  2  0  0  0
 21 22  1  0  0  0
 22 23  2  0  0  0
 18 23  1  0  0  0
 23  1  1  0  0  0
  1  2  2  0  0  0
  2  3  1  0  0  0
  3  4  2  0  0  0
  3  5  1  0  0  0
  5  6  2  0  0  0
  6  7  1  0  0  0
  7  8  2  0  0  0
  8  9  1  0  0  0
  9 10  2  0  0  0
  5 10  1  0  0  0
 10 11  1  0  0  0
  1 11  1  0  0  0
  8 12  1  0  0  0
  6 13  1  0  0  0
  2 14  1  0  0  0
 21 24  1  0  0  0
 20 25  1  0  0  0
 12 15  1  0  0  0
 13 16  1  0  0  0
 14 17  1  0  0  0
 24 26  1  0  0  0
 25 27  1  0  0  0
M  END
> <minimizedAffinity>
-6.59374

$$$$
Quercetin


 27 29  0  0  0  0  0  0  0  0999 V2000
   15.9012   12.9126   24.8585 C   0  0  0  0  0  0  0  0  0  0  0  0
   15.5628   13.9200   25.6890 C   0  0  0  0  0  0  0  0  0  0  0  0
   16.6617   14.7195   26.2949 C   0  0  0  0  0  0  0  0  0  0  0  0
   16.4622   15.6685   27.0497 O   0  0  0  0  0  0  0  0  0  0  0  0
   18.0366   14.3352   25.9556 C   0  0  0  0  0  0  0  0  0  0  0  0
   19.1390   15.0308   26.4673 C   0  0  0  0  0  0  0  0  0  0  0  0
   20.4339   14.6433   26.1320 C   0  0  0  0  0  0  0  0  0  0  0  0
   20.6166   13.5548   25.2842 C   0  0  0  0  0  0  0  0  0  0  0  0
   19.5283   12.8557   24.7685 C   0  0  0  0  0  0  0  0  0  0  0  0
   18.2335   13.2516   25.1047 C   0  0  0  0  0  0  0  0  0  0  0  0
   17.1998   12.5356   24.5585 O   0  0  0  0  0  0  0  0  0  0  0  0
   21.8648   13.1374   24.9279 O   0  0  0  0  0  0  0  0  0  0  0  0
   19.0184   16.1077   27.3047 O   0  0  0  0  0  0  0  0  0  0  0  0
   14.2649   14.2660   26.0223 O   0  0  0  0  0  0  0  0  0  0  0  0
   22.5219   13.7117   25.3570 H   0  0  0  0  0  0  0  0  0  0  0  0
   18.0585   16.2670   27.4614 H   0  0  0  0  0  0  0  0  0  0  0  0
   13.6594   13.5730   25.7100 H   0  0  0  0  0  0  0  0  0  0  0  0
   14.2134   11.0682   24.8547 C   0  0  0  0  0  0  0  0  0  0  0  0
   13.2805   10.2602   24.1968 C   0  0  0  0  0  0  0  0  0  0  0  0
   13.0240   10.4852   22.8510 C   0  0  0  0  0  0  0  0  0  0  0  0
   13.6804   11.5086   22.1710 C   0  0  0  0  0  0  0  0  0  0  0  0
   14.6086   12.3163   22.8151 C   0  0  0  0  0  0  0  0  0  0  0  0
   14.8928   12.0916   24.1672 C   0  0  0  0  0  0  0  0  0  0  0  0
   13.4185   11.7228   20.8480 O   0  0  0  0  0  0  0  0  0  0  0  0
   12.1337    9.7238   22.1473 O   0  0  0  0  0  0  0  0  0  0  0  0
   12.7435   11.0537   20.6166 H   0  0  0  0  0  0  0  0  0  0  0  0
   11.7626    9.0528   22.7463 H   0  0  0  0  0  0  0  0  0  0  0  0
 18 19  2  0  0  0
 19 20  1  0  0  0
 20 21  2  0  0  0
 21 22  1  0  0  0
 22 23  2  0  0  0
 18 23  1  0  0  0
 23  1  1  0  0  0
  1  2  2  0  0  0
  2  3  1  0  0  0
  3  4  2  0  0  0
  3  5  1  0  0  0
  5  6  2  0  0  0
  6  7  1  0  0  0
  7  8  2  0  0  0
  8  9  1  0  0  0
  9 10  2  0  0  0
  5 10  1  0  0  0
 10 11  1  0  0  0
  1 11  1  0  0  0
  8 12  1  0  0  0
  6 13  1  0  0  0
  2 14  1  0  0  0
 21 24  1  0  0  0
 20 25  1  0  0  0
 12 15  1  0  0  0
 13 16  1  0  0  0
 14 17  1  0  0  0
 24 26  1  0  0  0
 25 27  1  0  0  0
M  END
> <minimizedAffinity>
-6.57809

$$$$
