Quercetin


 27 29  0  0  0  0  0  0  0  0999 V2000
   28.9091    8.0675   -5.3879 C   0  0  0  0  0  0  0  0  0  0  0  0
   29.6270    6.9656   -5.0892 C   0  0  0  0  0  0  0  0  0  0  0  0
   30.9299    6.7763   -5.7824 C   0  0  0  0  0  0  0  0  0  0  0  0
   31.6687    5.8176   -5.5702 O   0  0  0  0  0  0  0  0  0  0  0  0
   31.3256    7.7991   -6.7575 C   0  0  0  0  0  0  0  0  0  0  0  0
   32.5370    7.7162   -7.4551 C   0  0  0  0  0  0  0  0  0  0  0  0
   32.8872    8.6988   -8.3777 C   0  0  0  0  0  0  0  0  0  0  0  0
   32.0161    9.7616   -8.5980 C   0  0  0  0  0  0  0  0  0  0  0  0
   30.8091    9.8554   -7.9099 C   0  0  0  0  0  0  0  0  0  0  0  0
   30.4662    8.8701   -6.9837 C   0  0  0  0  0  0  0  0  0  0  0  0
   29.2723    9.0193   -6.3263 O   0  0  0  0  0  0  0  0  0  0  0  0
   32.3147   10.7473   -9.4916 O   0  0  0  0  0  0  0  0  0  0  0  0
   33.4311    6.6940   -7.2785 O   0  0  0  0  0  0  0  0  0  0  0  0
   29.2402    5.9930   -4.1838 O   0  0  0  0  0  0  0  0  0  0  0  0
   33.1790   10.5548   -9.8937 H   0  0  0  0  0  0  0  0  0  0  0  0
   33.0580    6.0738   -6.6095 H   0  0  0  0  0  0  0  0  0  0  0  0
   28.3117    6.1379   -3.9365 H   0  0  0  0  0  0  0  0  0  0  0  0
   26.4357    7.7791   -5.1655 C   0  0  0  0  0  0  0  0  0  0  0  0
   25.2128    8.0944   -4.5645 C   0  0  0  0  0  0  0  0  0  0  0  0
   25.1919    9.0037   -3.5155 C   0  0  0  0  0  0  0  0  0  0  0  0
   26.3748    9.5839   -3.0633 C   0  0  0  0  0  0  0  0  0  0  0  0
   27.5942    9.2776   -3.6534 C   0  0  0  0  0  0  0  0  0  0  0  0
   27.6313    8.3768   -4.7243 C   0  0  0  0  0  0  0  0  0  0  0  0
   26.3430   10.4749   -2.0290 O   0  0  0  0  0  0  0  0  0  0  0  0
   24.0293    9.3639   -2.8938 O   0  0  0  0  0  0  0  0  0  0  0  0
   25.3997   10.5277   -1.7751 H   0  0  0  0  0  0  0  0  0  0  0  0
   23.2942    8.8873   -3.3171 H   0  0  0  0  0  0  0  0  0  0  0  0
 18 19  2  0  0  0
 19 20  1  0  0  0
 20 21  2  0  0  0
 21 22  1  0  0  0
 22 23  2  0  0  0
 18 23  1  0  0  0
 23  1  1  0  0  0
  1  2  2  0  0  0
  2  3  1  0  0  0
  3  4  2  0  0  0
  3  5  1  0  0  0
  5  6  2  0  0  0
  6  7  1  0  0  0
  7  8  2  0  0  0
  8  9  1  0  0  0
  9 10  2  0  0  0
  5 10  1  0  0  0
 10 11  1  0  0  0
  1 11  1  0  0  0
  8 12  1  0  0  0
  6 13  1  0  0  0
  2 14  1  0  0  0
 21 24  1  0  0  0
 20 25  1  0  0  0
 12 15  1  0  0  0
 13 16  1  0  0  0
 14 17  1  0  0  0
 24 26  1  0  0  0
 25 27  1  0  0  0
M  END
> <minimizedAffinity>
-6.48336

$$$$
Quercetin


 27 29  0  0  0  0  0  0  0  0999 V2000
   31.4688    8.9863   -7.6201 C   0  0  0  0  0  0  0  0  0  0  0  0
   31.8741    7.7941   -7.1372 C   0  0  0  0  0  0  0  0  0  0  0  0
   31.0300    7.1416   -6.1000 C   0  0  0  0  0  0  0  0  0  0  0  0
   31.2990    6.0483   -5.6077 O   0  0  0  0  0  0  0  0  0  0  0  0
   29.8259    7.8594   -5.6662 C   0  0  0  0  0  0  0  0  0  0  0  0
   28.9621    7.3250   -4.7022 C   0  0  0  0  0  0  0  0  0  0  0  0
   27.8275    8.0284   -4.3057 C   0  0  0  0  0  0  0  0  0  0  0  0
   27.5660    9.2695   -4.8786 C   0  0  0  0  0  0  0  0  0  0  0  0
   28.4171    9.8110   -5.8386 C   0  0  0  0  0  0  0  0  0  0  0  0
   29.5497    9.0992   -6.2348 C   0  0  0  0  0  0  0  0  0  0  0  0
   30.3453    9.6740   -7.1921 O   0  0  0  0  0  0  0  0  0  0  0  0
   26.4684    9.9959   -4.5224 O   0  0  0  0  0  0  0  0  0  0  0  0
   29.1700    6.1099   -4.1059 O   0  0  0  0  0  0  0  0  0  0  0  0
   33.0215    7.1302   -7.5347 O   0  0  0  0  0  0  0  0  0  0  0  0
   25.9694    9.5009   -3.8502 H   0  0  0  0  0  0  0  0  0  0  0  0
   30.0020    5.7284   -4.4714 H   0  0  0  0  0  0  0  0  0  0  0  0
   33.5660    7.7280   -8.0736 H   0  0  0  0  0  0  0  0  0  0  0  0
   33.1292   10.7030   -8.3595 C   0  0  0  0  0  0  0  0  0  0  0  0
   33.8037   11.4051   -9.3637 C   0  0  0  0  0  0  0  0  0  0  0  0
   33.5534   11.0883  -10.6921 C   0  0  0  0  0  0  0  0  0  0  0  0
   32.6508   10.0782  -11.0167 C   0  0  0  0  0  0  0  0  0  0  0  0
   31.9759    9.3753  -10.0271 C   0  0  0  0  0  0  0  0  0  0  0  0
   32.2024    9.6941   -8.6830 C   0  0  0  0  0  0  0  0  0  0  0  0
   32.4142    9.7730  -12.3266 O   0  0  0  0  0  0  0  0  0  0  0  0
   34.1696   11.7445  -11.7205 O   0  0  0  0  0  0  0  0  0  0  0  0
   32.9933   10.3786  -12.8315 H   0  0  0  0  0  0  0  0  0  0  0  0
   34.7605   12.4194  -11.3439 H   0  0  0  0  0  0  0  0  0  0  0  0
 18 19  2  0  0  0
 19 20  1  0  0  0
 20 21  2  0  0  0
 21 22  1  0  0  0
 22 23  2  0  0  0
 18 23  1  0  0  0
 23  1  1  0  0  0
  1  2  2  0  0  0
  2  3  1  0  0  0
  3  4  2  0  0  0
  3  5  1  0  0  0
  5  6  2  0  0  0
  6  7  1  0  0  0
  7  8  2  0  0  0
  8  9  1  0  0  0
  9 10  2  0  0  0
  5 10  1  0  0  0
 10 11  1  0  0  0
  1 11  1  0  0  0
  8 12  1  0  0  0
  6 13  1  0  0  0
  2 14  1  0  0  0
 21 24  1  0  0  0
 20 25  1  0  0  0
 12 15  1  0  0  0
 13 16  1  0  0  0
 14 17  1  0  0  0
 24 26  1  0  0  0
 25 27  1  0  0  0
M  END
> <minimizedAffinity>
-6.41274

$$$$
Quercetin


 27 29  0  0  0  0  0  0  0  0999 V2000
   29.3973    8.3578   -5.9574 C   0  0  0  0  0  0  0  0  0  0  0  0
   29.4627    7.1515   -5.3580 C   0  0  0  0  0  0  0  0  0  0  0  0
   28.2988    6.7193   -4.5379 C   0  0  0  0  0  0  0  0  0  0  0  0
   28.2491    5.6333   -3.9651 O   0  0  0  0  0  0  0  0  0  0  0  0
   27.1721    7.6530   -4.4282 C   0  0  0  0  0  0  0  0  0  0  0  0
   26.0271    7.3352   -3.6873 C   0  0  0  0  0  0  0  0  0  0  0  0
   24.9730    8.2408   -3.5966 C   0  0  0  0  0  0  0  0  0  0  0  0
   25.0746    9.4654   -4.2499 C   0  0  0  0  0  0  0  0  0  0  0  0
   26.2077    9.7925   -4.9903 C   0  0  0  0  0  0  0  0  0  0  0  0
   27.2584    8.8791   -5.0809 C   0  0  0  0  0  0  0  0  0  0  0  0
   28.3437    9.2482   -5.8330 O   0  0  0  0  0  0  0  0  0  0  0  0
   24.0694   10.3847   -4.1900 O   0  0  0  0  0  0  0  0  0  0  0  0
   25.8733    6.1465   -3.0248 O   0  0  0  0  0  0  0  0  0  0  0  0
   30.5363    6.2827   -5.4476 O   0  0  0  0  0  0  0  0  0  0  0  0
   23.3483   10.0258   -3.6450 H   0  0  0  0  0  0  0  0  0  0  0  0
   26.6873    5.6095   -3.1676 H   0  0  0  0  0  0  0  0  0  0  0  0
   31.2878    6.7446   -5.8553 H   0  0  0  0  0  0  0  0  0  0  0  0
   31.7941    8.9466   -6.3569 C   0  0  0  0  0  0  0  0  0  0  0  0
   32.8136    9.4566   -7.1672 C   0  0  0  0  0  0  0  0  0  0  0  0
   32.5062    9.8727   -8.4556 C   0  0  0  0  0  0  0  0  0  0  0  0
   31.2021    9.7726   -8.9352 C   0  0  0  0  0  0  0  0  0  0  0  0
   30.1827    9.2678   -8.1385 C   0  0  0  0  0  0  0  0  0  0  0  0
   30.4713    8.8607   -6.8306 C   0  0  0  0  0  0  0  0  0  0  0  0
   30.9115   10.1823  -10.2050 O   0  0  0  0  0  0  0  0  0  0  0  0
   33.4532   10.3916   -9.2933 O   0  0  0  0  0  0  0  0  0  0  0  0
   31.7666   10.4866  -10.5700 H   0  0  0  0  0  0  0  0  0  0  0  0
   34.3050   10.4047   -8.8233 H   0  0  0  0  0  0  0  0  0  0  0  0
 18 19  2  0  0  0
 19 20  1  0  0  0
 20 21  2  0  0  0
 21 22  1  0  0  0
 22 23  2  0  0  0
 18 23  1  0  0  0
 23  1  1  0  0  0
  1  2  2  0  0  0
  2  3  1  0  0  0
  3  4  2  0  0  0
  3  5  1  0  0  0
  5  6  2  0  0  0
  6  7  1  0  0  0
  7  8  2  0  0  0
  8  9  1  0  0  0
  9 10  2  0  0  0
  5 10  1  0  0  0
 10 11  1  0  0  0
  1 11  1  0  0  0
  8 12  1  0  0  0
  6 13  1  0  0  0
  2 14  1  0  0  0
 21 24  1  0  0  0
 20 25  1  0  0  0
 12 15  1  0  0  0
 13 16  1  0  0  0
 14 17  1  0  0  0
 24 26  1  0  0  0
 25 27  1  0  0  0
M  END
> <minimizedAffinity>
-6.31112

$$$$
Quercetin


 27 29  0  0  0  0  0  0  0  0999 V2000
   28.5334    8.0133   -5.9530 C   0  0  0  0  0  0  0  0  0  0  0  0
   29.8049    7.7419   -5.5945 C   0  0  0  0  0  0  0  0  0  0  0  0
   30.8984    8.3680   -6.3858 C   0  0  0  0  0  0  0  0  0  0  0  0
   32.0892    8.2008   -6.1324 O   0  0  0  0  0  0  0  0  0  0  0  0
   30.5065    9.2212   -7.5135 C   0  0  0  0  0  0  0  0  0  0  0  0
   31.4607    9.8624   -8.3130 C   0  0  0  0  0  0  0  0  0  0  0  0
   31.0620   10.6643   -9.3795 C   0  0  0  0  0  0  0  0  0  0  0  0
   29.7035   10.8171   -9.6405 C   0  0  0  0  0  0  0  0  0  0  0  0
   28.7452   10.1852   -8.8522 C   0  0  0  0  0  0  0  0  0  0  0  0
   29.1511    9.3868   -7.7825 C   0  0  0  0  0  0  0  0  0  0  0  0
   28.1653    8.7990   -7.0326 O   0  0  0  0  0  0  0  0  0  0  0  0
   29.2643   11.5912  -10.6736 O   0  0  0  0  0  0  0  0  0  0  0  0
   32.8090    9.7477   -8.1025 O   0  0  0  0  0  0  0  0  0  0  0  0
   30.1702    6.9201   -4.5425 O   0  0  0  0  0  0  0  0  0  0  0  0
   30.0346   11.9670  -11.1333 H   0  0  0  0  0  0  0  0  0  0  0  0
   32.9480    9.1534   -7.3286 H   0  0  0  0  0  0  0  0  0  0  0  0
   29.3864    6.4422   -4.2235 H   0  0  0  0  0  0  0  0  0  0  0  0
   27.0238    8.0332   -3.9602 C   0  0  0  0  0  0  0  0  0  0  0  0
   25.9496    7.5153   -3.2294 C   0  0  0  0  0  0  0  0  0  0  0  0
   25.2257    6.4539   -3.7558 C   0  0  0  0  0  0  0  0  0  0  0  0
   25.5603    5.9214   -4.9987 C   0  0  0  0  0  0  0  0  0  0  0  0
   26.6252    6.4284   -5.7321 C   0  0  0  0  0  0  0  0  0  0  0  0
   27.3774    7.4864   -5.2082 C   0  0  0  0  0  0  0  0  0  0  0  0
   24.8397    4.8793   -5.5081 O   0  0  0  0  0  0  0  0  0  0  0  0
   24.1733    5.8942   -3.0872 O   0  0  0  0  0  0  0  0  0  0  0  0
   24.1521    4.7002   -4.8357 H   0  0  0  0  0  0  0  0  0  0  0  0
   24.0635    6.3616   -2.2409 H   0  0  0  0  0  0  0  0  0  0  0  0
 18 19  2  0  0  0
 19 20  1  0  0  0
 20 21  2  0  0  0
 21 22  1  0  0  0
 22 23  2  0  0  0
 18 23  1  0  0  0
 23  1  1  0  0  0
  1  2  2  0  0  0
  2  3  1  0  0  0
  3  4  2  0  0  0
  3  5  1  0  0  0
  5  6  2  0  0  0
  6  7  1  0  0  0
  7  8  2  0  0  0
  8  9  1  0  0  0
  9 10  2  0  0  0
  5 10  1  0  0  0
 10 11  1  0  0  0
  1 11  1  0  0  0
  8 12  1  0  0  0
  6 13  1  0  0  0
  2 14  1  0  0  0
 21 24  1  0  0  0
 20 25  1  0  0  0
 12 15  1  0  0  0
 13 16  1  0  0  0
 14 17  1  0  0  0
 24 26  1  0  0  0
 25 27  1  0  0  0
M  END
> <minimizedAffinity>
-6.25135

$$$$
Quercetin


 27 29  0  0  0  0  0  0  0  0999 V2000
   31.8699    9.5175   -8.1795 C   0  0  0  0  0  0  0  0  0  0  0  0
   31.6925    9.3181   -9.5015 C   0  0  0  0  0  0  0  0  0  0  0  0
   32.4413   10.1940  -10.4428 C   0  0  0  0  0  0  0  0  0  0  0  0
   32.3652   10.0845  -11.6644 O   0  0  0  0  0  0  0  0  0  0  0  0
   33.3045   11.2257   -9.8563 C   0  0  0  0  0  0  0  0  0  0  0  0
   34.0569   12.0933  -10.6574 C   0  0  0  0  0  0  0  0  0  0  0  0
   34.8659   13.0661  -10.0754 C   0  0  0  0  0  0  0  0  0  0  0  0
   34.9138   13.1651   -8.6880 C   0  0  0  0  0  0  0  0  0  0  0  0
   34.1707   12.3075   -7.8808 C   0  0  0  0  0  0  0  0  0  0  0  0
   33.3657   11.3323   -8.4700 C   0  0  0  0  0  0  0  0  0  0  0  0
   32.6659   10.5075   -7.6275 O   0  0  0  0  0  0  0  0  0  0  0  0
   35.6902   14.1015   -8.0721 O   0  0  0  0  0  0  0  0  0  0  0  0
   34.0481   12.0413  -12.0259 O   0  0  0  0  0  0  0  0  0  0  0  0
   30.8615    8.3570  -10.0503 O   0  0  0  0  0  0  0  0  0  0  0  0
   36.1488   14.6249   -8.7515 H   0  0  0  0  0  0  0  0  0  0  0  0
   33.4361   11.3192  -12.3004 H   0  0  0  0  0  0  0  0  0  0  0  0
   30.3061    7.9770   -9.3493 H   0  0  0  0  0  0  0  0  0  0  0  0
   29.9690    9.0452   -6.6259 C   0  0  0  0  0  0  0  0  0  0  0  0
   29.3581    8.2707   -5.6343 C   0  0  0  0  0  0  0  0  0  0  0  0
   29.9963    7.1211   -5.1883 C   0  0  0  0  0  0  0  0  0  0  0  0
   31.2222    6.7415   -5.7300 C   0  0  0  0  0  0  0  0  0  0  0  0
   31.8371    7.5037   -6.7148 C   0  0  0  0  0  0  0  0  0  0  0  0
   31.2165    8.6757   -7.1631 C   0  0  0  0  0  0  0  0  0  0  0  0
   31.8398    5.6074   -5.2858 O   0  0  0  0  0  0  0  0  0  0  0  0
   29.4592    6.3277   -4.2137 O   0  0  0  0  0  0  0  0  0  0  0  0
   31.2318    5.2404   -4.6130 H   0  0  0  0  0  0  0  0  0  0  0  0
   28.6143    6.7183   -3.9306 H   0  0  0  0  0  0  0  0  0  0  0  0
 18 19  2  0  0  0
 19 20  1  0  0  0
 20 21  2  0  0  0
 21 22  1  0  0  0
 22 23  2  0  0  0
 18 23  1  0  0  0
 23  1  1  0  0  0
  1  2  2  0  0  0
  2  3  1  0  0  0
  3  4  2  0  0  0
  3  5  1  0  0  0
  5  6  2  0  0  0
  6  7  1  0  0  0
  7  8  2  0  0  0
  8  9  1  0  0  0
  9 10  2  0  0  0
  5 10  1  0  0  0
 10 11  1  0  0  0
  1 11  1  0  0  0
  8 12  1  0  0  0
  6 13  1  0  0  0
  2 14  1  0  0  0
 21 24  1  0  0  0
 20 25  1  0  0  0
 12 15  1  0  0  0
 13 16  1  0  0  0
 14 17  1  0  0  0
 24 26  1  0  0  0
 25 27  1  0  0  0
M  END
> <minimizedAffinity>
-6.16212

$$$$
