Quercetin


 27 29  0  0  0  0  0  0  0  0999 V2000
   22.8560    5.7669   -3.8483 C   0  0  0  0  0  0  0  0  0  0  0  0
   22.5854    4.7760   -2.9743 C   0  0  0  0  0  0  0  0  0  0  0  0
   21.3517    4.8939   -2.1508 C   0  0  0  0  0  0  0  0  0  0  0  0
   21.0041    4.0397   -1.3388 O   0  0  0  0  0  0  0  0  0  0  0  0
   20.5310    6.0955   -2.3405 C   0  0  0  0  0  0  0  0  0  0  0  0
   19.3470    6.2950   -1.6199 C   0  0  0  0  0  0  0  0  0  0  0  0
   18.5881    7.4459   -1.8165 C   0  0  0  0  0  0  0  0  0  0  0  0
   19.0239    8.3950   -2.7365 C   0  0  0  0  0  0  0  0  0  0  0  0
   20.1991    8.2076   -3.4596 C   0  0  0  0  0  0  0  0  0  0  0  0
   20.9525    7.0502   -3.2611 C   0  0  0  0  0  0  0  0  0  0  0  0
   22.0935    6.9120   -4.0087 O   0  0  0  0  0  0  0  0  0  0  0  0
   18.3156    9.5378   -2.9631 O   0  0  0  0  0  0  0  0  0  0  0  0
   18.8712    5.3957   -0.7031 O   0  0  0  0  0  0  0  0  0  0  0  0
   23.3732    3.6542   -2.7841 O   0  0  0  0  0  0  0  0  0  0  0  0
   17.5260    9.5353   -2.3953 H   0  0  0  0  0  0  0  0  0  0  0  0
   19.5021    4.6398   -0.6606 H   0  0  0  0  0  0  0  0  0  0  0  0
   24.2215    3.7783   -3.2416 H   0  0  0  0  0  0  0  0  0  0  0  0
   25.2723    6.2088   -4.3136 C   0  0  0  0  0  0  0  0  0  0  0  0
   26.3770    6.2071   -5.1714 C   0  0  0  0  0  0  0  0  0  0  0  0
   26.2286    5.7131   -6.4605 C   0  0  0  0  0  0  0  0  0  0  0  0
   24.9986    5.2174   -6.8870 C   0  0  0  0  0  0  0  0  0  0  0  0
   23.8957    5.2148   -6.0429 C   0  0  0  0  0  0  0  0  0  0  0  0
   24.0228    5.7261   -4.7460 C   0  0  0  0  0  0  0  0  0  0  0  0
   24.8646    4.7314   -8.1561 O   0  0  0  0  0  0  0  0  0  0  0  0
   27.2646    5.6947   -7.3516 O   0  0  0  0  0  0  0  0  0  0  0  0
   25.7533    4.8263   -8.5538 H   0  0  0  0  0  0  0  0  0  0  0  0
   28.0490    6.0738   -6.9185 H   0  0  0  0  0  0  0  0  0  0  0  0
 18 19  2  0  0  0
 19 20  1  0  0  0
 20 21  2  0  0  0
 21 22  1  0  0  0
 22 23  2  0  0  0
 18 23  1  0  0  0
 23  1  1  0  0  0
  1  2  2  0  0  0
  2  3  1  0  0  0
  3  4  2  0  0  0
  3  5  1  0  0  0
  5  6  2  0  0  0
  6  7  1  0  0  0
  7  8  2  0  0  0
  8  9  1  0  0  0
  9 10  2  0  0  0
  5 10  1  0  0  0
 10 11  1  0  0  0
  1 11  1  0  0  0
  8 12  1  0  0  0
  6 13  1  0  0  0
  2 14  1  0  0  0
 21 24  1  0  0  0
 20 25  1  0  0  0
 12 15  1  0  0  0
 13 16  1  0  0  0
 14 17  1  0  0  0
 24 26  1  0  0  0
 25 27  1  0  0  0
M  END
> <minimizedAffinity>
-7.06765

$$$$
Quercetin


 27 29  0  0  0  0  0  0  0  0999 V2000
   22.9192    5.3957   -3.6940 C   0  0  0  0  0  0  0  0  0  0  0  0
   21.7580    6.0687   -3.8266 C   0  0  0  0  0  0  0  0  0  0  0  0
   20.7154    5.8670   -2.7845 C   0  0  0  0  0  0  0  0  0  0  0  0
   19.6309    6.4446   -2.8012 O   0  0  0  0  0  0  0  0  0  0  0  0
   21.0254    4.9309   -1.6979 C   0  0  0  0  0  0  0  0  0  0  0  0
   20.1138    4.6799   -0.6649 C   0  0  0  0  0  0  0  0  0  0  0  0
   20.4317    3.7841    0.3529 C   0  0  0  0  0  0  0  0  0  0  0  0
   21.6656    3.1409    0.3275 C   0  0  0  0  0  0  0  0  0  0  0  0
   22.5807    3.3828   -0.6938 C   0  0  0  0  0  0  0  0  0  0  0  0
   22.2580    4.2847   -1.7082 C   0  0  0  0  0  0  0  0  0  0  0  0
   23.2009    4.4939   -2.6812 O   0  0  0  0  0  0  0  0  0  0  0  0
   22.0218    2.2553    1.3012 O   0  0  0  0  0  0  0  0  0  0  0  0
   18.8869    5.2835   -0.5897 O   0  0  0  0  0  0  0  0  0  0  0  0
   21.4620    6.9352   -4.8644 O   0  0  0  0  0  0  0  0  0  0  0  0
   21.2944    2.1853    1.9429 H   0  0  0  0  0  0  0  0  0  0  0  0
   18.7921    5.8811   -1.3677 H   0  0  0  0  0  0  0  0  0  0  0  0
   22.1378    6.8466   -5.5571 H   0  0  0  0  0  0  0  0  0  0  0  0
   25.2071    6.2358   -4.2509 C   0  0  0  0  0  0  0  0  0  0  0  0
   26.2574    6.4280   -5.1543 C   0  0  0  0  0  0  0  0  0  0  0  0
   26.1341    5.9344   -6.4462 C   0  0  0  0  0  0  0  0  0  0  0  0
   24.9841    5.2489   -6.8310 C   0  0  0  0  0  0  0  0  0  0  0  0
   23.9356    5.0530   -5.9416 C   0  0  0  0  0  0  0  0  0  0  0  0
   24.0354    5.5600   -4.6406 C   0  0  0  0  0  0  0  0  0  0  0  0
   24.8746    4.7653   -8.1034 O   0  0  0  0  0  0  0  0  0  0  0  0
   27.1181    6.0992   -7.3803 O   0  0  0  0  0  0  0  0  0  0  0  0
   25.7170    5.0108   -8.5360 H   0  0  0  0  0  0  0  0  0  0  0  0
   27.8485    6.5962   -6.9726 H   0  0  0  0  0  0  0  0  0  0  0  0
 18 19  2  0  0  0
 19 20  1  0  0  0
 20 21  2  0  0  0
 21 22  1  0  0  0
 22 23  2  0  0  0
 18 23  1  0  0  0
 23  1  1  0  0  0
  1  2  2  0  0  0
  2  3  1  0  0  0
  3  4  2  0  0  0
  3  5  1  0  0  0
  5  6  2  0  0  0
  6  7  1  0  0  0
  7  8  2  0  0  0
  8  9  1  0  0  0
  9 10  2  0  0  0
  5 10  1  0  0  0
 10 11  1  0  0  0
  1 11  1  0  0  0
  8 12  1  0  0  0
  6 13  1  0  0  0
  2 14  1  0  0  0
 21 24  1  0  0  0
 20 25  1  0  0  0
 12 15  1  0  0  0
 13 16  1  0  0  0
 14 17  1  0  0  0
 24 26  1  0  0  0
 25 27  1  0  0  0
M  END
> <minimizedAffinity>
-6.88427

$$$$
Quercetin


 27 29  0  0  0  0  0  0  0  0999 V2000
   22.4076    7.7753   -4.0405 C   0  0  0  0  0  0  0  0  0  0  0  0
   23.3395    8.6631   -3.6377 C   0  0  0  0  0  0  0  0  0  0  0  0
   24.6344    8.6914   -4.3700 C   0  0  0  0  0  0  0  0  0  0  0  0
   25.5424    9.4726   -4.0956 O   0  0  0  0  0  0  0  0  0  0  0  0
   24.8055    7.7321   -5.4671 C   0  0  0  0  0  0  0  0  0  0  0  0
   25.9837    7.6859   -6.2226 C   0  0  0  0  0  0  0  0  0  0  0  0
   26.1218    6.7633   -7.2566 C   0  0  0  0  0  0  0  0  0  0  0  0
   25.0745    5.8874   -7.5265 C   0  0  0  0  0  0  0  0  0  0  0  0
   23.8977    5.9242   -6.7828 C   0  0  0  0  0  0  0  0  0  0  0  0
   23.7640    6.8538   -5.7511 C   0  0  0  0  0  0  0  0  0  0  0  0
   22.5798    6.8539   -5.0602 O   0  0  0  0  0  0  0  0  0  0  0  0
   25.1629    4.9663   -8.5280 O   0  0  0  0  0  0  0  0  0  0  0  0
   27.0450    8.5225   -6.0012 O   0  0  0  0  0  0  0  0  0  0  0  0
   23.1814    9.5523   -2.5890 O   0  0  0  0  0  0  0  0  0  0  0  0
   26.0304    5.0539   -8.9589 H   0  0  0  0  0  0  0  0  0  0  0  0
   26.8165    9.1130   -5.2459 H   0  0  0  0  0  0  0  0  0  0  0  0
   22.3807    9.3188   -2.0902 H   0  0  0  0  0  0  0  0  0  0  0  0
   20.7129    6.5772   -2.6465 C   0  0  0  0  0  0  0  0  0  0  0  0
   19.4372    6.4786   -2.0817 C   0  0  0  0  0  0  0  0  0  0  0  0
   18.5286    7.5085   -2.2848 C   0  0  0  0  0  0  0  0  0  0  0  0
   18.8887    8.6276   -3.0322 C   0  0  0  0  0  0  0  0  0  0  0  0
   20.1527    8.7350   -3.5974 C   0  0  0  0  0  0  0  0  0  0  0  0
   21.0752    7.6975   -3.4180 C   0  0  0  0  0  0  0  0  0  0  0  0
   17.9879    9.6360   -3.2235 O   0  0  0  0  0  0  0  0  0  0  0  0
   17.2628    7.4681   -1.7710 O   0  0  0  0  0  0  0  0  0  0  0  0
   17.1879    9.3500   -2.7385 H   0  0  0  0  0  0  0  0  0  0  0  0
   17.1558    6.6329   -1.2835 H   0  0  0  0  0  0  0  0  0  0  0  0
 18 19  2  0  0  0
 19 20  1  0  0  0
 20 21  2  0  0  0
 21 22  1  0  0  0
 22 23  2  0  0  0
 18 23  1  0  0  0
 23  1  1  0  0  0
  1  2  2  0  0  0
  2  3  1  0  0  0
  3  4  2  0  0  0
  3  5  1  0  0  0
  5  6  2  0  0  0
  6  7  1  0  0  0
  7  8  2  0  0  0
  8  9  1  0  0  0
  9 10  2  0  0  0
  5 10  1  0  0  0
 10 11  1  0  0  0
  1 11  1  0  0  0
  8 12  1  0  0  0
  6 13  1  0  0  0
  2 14  1  0  0  0
 21 24  1  0  0  0
 20 25  1  0  0  0
 12 15  1  0  0  0
 13 16  1  0  0  0
 14 17  1  0  0  0
 24 26  1  0  0  0
 25 27  1  0  0  0
M  END
> <minimizedAffinity>
-6.69925

$$$$
Quercetin


 27 29  0  0  0  0  0  0  0  0999 V2000
   23.6469    7.0170   -5.2627 C   0  0  0  0  0  0  0  0  0  0  0  0
   24.1772    7.0398   -6.5025 C   0  0  0  0  0  0  0  0  0  0  0  0
   25.3932    7.8685   -6.7227 C   0  0  0  0  0  0  0  0  0  0  0  0
   25.9647    7.9446   -7.8080 O   0  0  0  0  0  0  0  0  0  0  0  0
   25.9124    8.6166   -5.5721 C   0  0  0  0  0  0  0  0  0  0  0  0
   27.0565    9.4175   -5.6750 C   0  0  0  0  0  0  0  0  0  0  0  0
   27.5266   10.1199   -4.5681 C   0  0  0  0  0  0  0  0  0  0  0  0
   26.8425   10.0166   -3.3605 C   0  0  0  0  0  0  0  0  0  0  0  0
   25.7042    9.2228   -3.2456 C   0  0  0  0  0  0  0  0  0  0  0  0
   25.2410    8.5182   -4.3570 C   0  0  0  0  0  0  0  0  0  0  0  0
   24.1237    7.7428   -4.1837 O   0  0  0  0  0  0  0  0  0  0  0  0
   27.2637   10.6856   -2.2495 O   0  0  0  0  0  0  0  0  0  0  0  0
   27.7681    9.5560   -6.8368 O   0  0  0  0  0  0  0  0  0  0  0  0
   23.6721    6.3486   -7.5900 O   0  0  0  0  0  0  0  0  0  0  0  0
   28.0615   11.1946   -2.4736 H   0  0  0  0  0  0  0  0  0  0  0  0
   27.3261    9.0153   -7.5322 H   0  0  0  0  0  0  0  0  0  0  0  0
   22.7954    5.9951   -7.3645 H   0  0  0  0  0  0  0  0  0  0  0  0
   21.1799    6.7421   -4.9643 C   0  0  0  0  0  0  0  0  0  0  0  0
   20.0647    5.9762   -4.6098 C   0  0  0  0  0  0  0  0  0  0  0  0
   20.2494    4.6555   -4.2231 C   0  0  0  0  0  0  0  0  0  0  0  0
   21.5271    4.1011   -4.1996 C   0  0  0  0  0  0  0  0  0  0  0  0
   22.6409    4.8533   -4.5496 C   0  0  0  0  0  0  0  0  0  0  0  0
   22.4750    6.1919   -4.9243 C   0  0  0  0  0  0  0  0  0  0  0  0
   21.6969    2.8003   -3.8202 O   0  0  0  0  0  0  0  0  0  0  0  0
   19.2035    3.8574   -3.8530 O   0  0  0  0  0  0  0  0  0  0  0  0
   20.7933    2.4766   -3.6307 H   0  0  0  0  0  0  0  0  0  0  0  0
   18.3837    4.3780   -3.9129 H   0  0  0  0  0  0  0  0  0  0  0  0
 18 19  2  0  0  0
 19 20  1  0  0  0
 20 21  2  0  0  0
 21 22  1  0  0  0
 22 23  2  0  0  0
 18 23  1  0  0  0
 23  1  1  0  0  0
  1  2  2  0  0  0
  2  3  1  0  0  0
  3  4  2  0  0  0
  3  5  1  0  0  0
  5  6  2  0  0  0
  6  7  1  0  0  0
  7  8  2  0  0  0
  8  9  1  0  0  0
  9 10  2  0  0  0
  5 10  1  0  0  0
 10 11  1  0  0  0
  1 11  1  0  0  0
  8 12  1  0  0  0
  6 13  1  0  0  0
  2 14  1  0  0  0
 21 24  1  0  0  0
 20 25  1  0  0  0
 12 15  1  0  0  0
 13 16  1  0  0  0
 14 17  1  0  0  0
 24 26  1  0  0  0
 25 27  1  0  0  0
M  END
> <minimizedAffinity>
-6.67202

$$$$
Quercetin


 27 29  0  0  0  0  0  0  0  0999 V2000
   22.0019    6.5659   -3.9442 C   0  0  0  0  0  0  0  0  0  0  0  0
   22.3715    5.4288   -4.5682 C   0  0  0  0  0  0  0  0  0  0  0  0
   23.7893    5.3038   -5.0018 C   0  0  0  0  0  0  0  0  0  0  0  0
   24.2330    4.3039   -5.5618 O   0  0  0  0  0  0  0  0  0  0  0  0
   24.6757    6.4419   -4.7332 C   0  0  0  0  0  0  0  0  0  0  0  0
   26.0285    6.4179   -5.0942 C   0  0  0  0  0  0  0  0  0  0  0  0
   26.8475    7.5130   -4.8307 C   0  0  0  0  0  0  0  0  0  0  0  0
   26.3024    8.6311   -4.2064 C   0  0  0  0  0  0  0  0  0  0  0  0
   24.9589    8.6665   -3.8418 C   0  0  0  0  0  0  0  0  0  0  0  0
   24.1448    7.5645   -4.1047 C   0  0  0  0  0  0  0  0  0  0  0  0
   22.8336    7.6491   -3.7132 O   0  0  0  0  0  0  0  0  0  0  0  0
   27.0639    9.7274   -3.9281 O   0  0  0  0  0  0  0  0  0  0  0  0
   26.6172    5.3458   -5.7101 O   0  0  0  0  0  0  0  0  0  0  0  0
   21.5270    4.3660   -4.8378 O   0  0  0  0  0  0  0  0  0  0  0  0
   27.9724    9.5642   -4.2345 H   0  0  0  0  0  0  0  0  0  0  0  0
   25.9292    4.6521   -5.8400 H   0  0  0  0  0  0  0  0  0  0  0  0
   20.6091    4.6365   -4.6685 H   0  0  0  0  0  0  0  0  0  0  0  0
   19.5635    6.9716   -4.3184 C   0  0  0  0  0  0  0  0  0  0  0  0
   18.2706    7.2044   -3.8385 C   0  0  0  0  0  0  0  0  0  0  0  0
   18.0548    7.2291   -2.4671 C   0  0  0  0  0  0  0  0  0  0  0  0
   19.1110    7.0143   -1.5846 C   0  0  0  0  0  0  0  0  0  0  0  0
   20.3985    6.7825   -2.0510 C   0  0  0  0  0  0  0  0  0  0  0  0
   20.6373    6.7725   -3.4303 C   0  0  0  0  0  0  0  0  0  0  0  0
   18.8870    7.0381   -0.2377 O   0  0  0  0  0  0  0  0  0  0  0  0
   16.8186    7.4635   -1.9336 O   0  0  0  0  0  0  0  0  0  0  0  0
   17.9277    7.2076   -0.1481 H   0  0  0  0  0  0  0  0  0  0  0  0
   16.1899    7.5998   -2.6635 H   0  0  0  0  0  0  0  0  0  0  0  0
 18 19  2  0  0  0
 19 20  1  0  0  0
 20 21  2  0  0  0
 21 22  1  0  0  0
 22 23  2  0  0  0
 18 23  1  0  0  0
 23  1  1  0  0  0
  1  2  2  0  0  0
  2  3  1  0  0  0
  3  4  2  0  0  0
  3  5  1  0  0  0
  5  6  2  0  0  0
  6  7  1  0  0  0
  7  8  2  0  0  0
  8  9  1  0  0  0
  9 10  2  0  0  0
  5 10  1  0  0  0
 10 11  1  0  0  0
  1 11  1  0  0  0
  8 12  1  0  0  0
  6 13  1  0  0  0
  2 14  1  0  0  0
 21 24  1  0  0  0
 20 25  1  0  0  0
 12 15  1  0  0  0
 13 16  1  0  0  0
 14 17  1  0  0  0
 24 26  1  0  0  0
 25 27  1  0  0  0
M  END
> <minimizedAffinity>
-6.36325

$$$$
