Quercetin


 27 29  0  0  0  0  0  0  0  0999 V2000
   28.8226   -3.8633   13.2546 C   0  0  0  0  0  0  0  0  0  0  0  0
   29.3525   -5.0362   13.6576 C   0  0  0  0  0  0  0  0  0  0  0  0
   30.8346   -5.1676   13.6508 C   0  0  0  0  0  0  0  0  0  0  0  0
   31.4186   -6.1856   14.0150 O   0  0  0  0  0  0  0  0  0  0  0  0
   31.6083   -4.0111   13.1848 C   0  0  0  0  0  0  0  0  0  0  0  0
   33.0080   -4.0325   13.1495 C   0  0  0  0  0  0  0  0  0  0  0  0
   33.7184   -2.9224   12.6996 C   0  0  0  0  0  0  0  0  0  0  0  0
   33.0182   -1.7938   12.2838 C   0  0  0  0  0  0  0  0  0  0  0  0
   31.6264   -1.7602   12.3149 C   0  0  0  0  0  0  0  0  0  0  0  0
   30.9208   -2.8741   12.7709 C   0  0  0  0  0  0  0  0  0  0  0  0
   29.5531   -2.7813   12.7919 O   0  0  0  0  0  0  0  0  0  0  0  0
   33.6691   -0.6831   11.8347 O   0  0  0  0  0  0  0  0  0  0  0  0
   33.7478   -5.1146   13.5460 O   0  0  0  0  0  0  0  0  0  0  0  0
   28.6179   -6.1316   14.0770 O   0  0  0  0  0  0  0  0  0  0  0  0
   34.6273   -0.8462   11.8679 H   0  0  0  0  0  0  0  0  0  0  0  0
   33.1247   -5.8227   13.8318 H   0  0  0  0  0  0  0  0  0  0  0  0
   27.6796   -5.9846   13.8714 H   0  0  0  0  0  0  0  0  0  0  0  0
   26.8167   -2.6975   14.1863 C   0  0  0  0  0  0  0  0  0  0  0  0
   25.4362   -2.4778   14.2316 C   0  0  0  0  0  0  0  0  0  0  0  0
   24.6145   -3.1680   13.3507 C   0  0  0  0  0  0  0  0  0  0  0  0
   25.1611   -4.0582   12.4291 C   0  0  0  0  0  0  0  0  0  0  0  0
   26.5305   -4.2836   12.3763 C   0  0  0  0  0  0  0  0  0  0  0  0
   27.3719   -3.6099   13.2694 C   0  0  0  0  0  0  0  0  0  0  0  0
   24.3438   -4.7298   11.5655 O   0  0  0  0  0  0  0  0  0  0  0  0
   23.2572   -3.0081   13.3517 O   0  0  0  0  0  0  0  0  0  0  0  0
   23.4431   -4.4127   11.7781 H   0  0  0  0  0  0  0  0  0  0  0  0
   23.0240   -2.3671   14.0455 H   0  0  0  0  0  0  0  0  0  0  0  0
 18 19  2  0  0  0
 19 20  1  0  0  0
 20 21  2  0  0  0
 21 22  1  0  0  0
 22 23  2  0  0  0
 18 23  1  0  0  0
 23  1  1  0  0  0
  1  2  2  0  0  0
  2  3  1  0  0  0
  3  4  2  0  0  0
  3  5  1  0  0  0
  5  6  2  0  0  0
  6  7  1  0  0  0
  7  8  2  0  0  0
  8  9  1  0  0  0
  9 10  2  0  0  0
  5 10  1  0  0  0
 10 11  1  0  0  0
  1 11  1  0  0  0
  8 12  1  0  0  0
  6 13  1  0  0  0
  2 14  1  0  0  0
 21 24  1  0  0  0
 20 25  1  0  0  0
 12 15  1  0  0  0
 13 16  1  0  0  0
 14 17  1  0  0  0
 24 26  1  0  0  0
 25 27  1  0  0  0
M  END
> <minimizedAffinity>
-6.76019

$$$$
Quercetin


 27 29  0  0  0  0  0  0  0  0999 V2000
   27.7701   -3.5649   13.7475 C   0  0  0  0  0  0  0  0  0  0  0  0
   27.8215   -4.6702   14.5187 C   0  0  0  0  0  0  0  0  0  0  0  0
   26.5480   -5.1669   15.1062 C   0  0  0  0  0  0  0  0  0  0  0  0
   26.4815   -6.1737   15.8077 O   0  0  0  0  0  0  0  0  0  0  0  0
   25.3311   -4.4000   14.8156 C   0  0  0  0  0  0  0  0  0  0  0  0
   24.0824   -4.7909   15.3144 C   0  0  0  0  0  0  0  0  0  0  0  0
   22.9433   -4.0433   15.0263 C   0  0  0  0  0  0  0  0  0  0  0  0
   23.0640   -2.9022   14.2387 C   0  0  0  0  0  0  0  0  0  0  0  0
   24.3002   -2.5038   13.7363 C   0  0  0  0  0  0  0  0  0  0  0  0
   25.4367   -3.2596   14.0249 C   0  0  0  0  0  0  0  0  0  0  0  0
   26.6250   -2.8282   13.4942 O   0  0  0  0  0  0  0  0  0  0  0  0
   21.9780   -2.1376   13.9300 O   0  0  0  0  0  0  0  0  0  0  0  0
   23.9052   -5.9031   16.0935 O   0  0  0  0  0  0  0  0  0  0  0  0
   28.9749   -5.3788   14.8068 O   0  0  0  0  0  0  0  0  0  0  0  0
   21.1902   -2.5306   14.3432 H   0  0  0  0  0  0  0  0  0  0  0  0
   24.7844   -6.3296   16.2218 H   0  0  0  0  0  0  0  0  0  0  0  0
   29.7467   -4.8640   14.5175 H   0  0  0  0  0  0  0  0  0  0  0  0
   29.2009   -3.2850   11.7164 C   0  0  0  0  0  0  0  0  0  0  0  0
   30.3487   -2.7996   11.0816 C   0  0  0  0  0  0  0  0  0  0  0  0
   31.2524   -2.0394   11.8117 C   0  0  0  0  0  0  0  0  0  0  0  0
   31.0114   -1.7570   13.1543 C   0  0  0  0  0  0  0  0  0  0  0  0
   29.8748   -2.2344   13.7940 C   0  0  0  0  0  0  0  0  0  0  0  0
   28.9622   -3.0179   13.0777 C   0  0  0  0  0  0  0  0  0  0  0  0
   31.9056   -1.0060   13.8623 O   0  0  0  0  0  0  0  0  0  0  0  0
   32.3987   -1.5461   11.2545 O   0  0  0  0  0  0  0  0  0  0  0  0
   32.6066   -0.7812   13.2180 H   0  0  0  0  0  0  0  0  0  0  0  0
   32.4331   -1.8267   10.3235 H   0  0  0  0  0  0  0  0  0  0  0  0
 18 19  2  0  0  0
 19 20  1  0  0  0
 20 21  2  0  0  0
 21 22  1  0  0  0
 22 23  2  0  0  0
 18 23  1  0  0  0
 23  1  1  0  0  0
  1  2  2  0  0  0
  2  3  1  0  0  0
  3  4  2  0  0  0
  3  5  1  0  0  0
  5  6  2  0  0  0
  6  7  1  0  0  0
  7  8  2  0  0  0
  8  9  1  0  0  0
  9 10  2  0  0  0
  5 10  1  0  0  0
 10 11  1  0  0  0
  1 11  1  0  0  0
  8 12  1  0  0  0
  6 13  1  0  0  0
  2 14  1  0  0  0
 21 24  1  0  0  0
 20 25  1  0  0  0
 12 15  1  0  0  0
 13 16  1  0  0  0
 14 17  1  0  0  0
 24 26  1  0  0  0
 25 27  1  0  0  0
M  END
> <minimizedAffinity>
-6.59235

$$$$
Quercetin


 27 29  0  0  0  0  0  0  0  0999 V2000
   27.2552   -1.3658   15.4006 C   0  0  0  0  0  0  0  0  0  0  0  0
   27.0618   -1.5378   16.7243 C   0  0  0  0  0  0  0  0  0  0  0  0
   27.6549   -0.5343   17.6490 C   0  0  0  0  0  0  0  0  0  0  0  0
   27.5232   -0.5880   18.8696 O   0  0  0  0  0  0  0  0  0  0  0  0
   28.4254    0.5597   17.0469 C   0  0  0  0  0  0  0  0  0  0  0  0
   29.0152    1.5585   17.8314 C   0  0  0  0  0  0  0  0  0  0  0  0
   29.7442    2.5842   17.2348 C   0  0  0  0  0  0  0  0  0  0  0  0
   29.8802    2.6010   15.8498 C   0  0  0  0  0  0  0  0  0  0  0  0
   29.2977    1.6138   15.0590 C   0  0  0  0  0  0  0  0  0  0  0  0
   28.5649    0.5915   15.6625 C   0  0  0  0  0  0  0  0  0  0  0  0
   28.0032   -0.3464   14.8352 O   0  0  0  0  0  0  0  0  0  0  0  0
   30.5848    3.5839   15.2201 O   0  0  0  0  0  0  0  0  0  0  0  0
   28.9140    1.5917   19.1967 O   0  0  0  0  0  0  0  0  0  0  0  0
   26.3514   -2.5827   17.2890 O   0  0  0  0  0  0  0  0  0  0  0  0
   30.9316    4.1989   15.8890 H   0  0  0  0  0  0  0  0  0  0  0  0
   28.3823    0.8128   19.4828 H   0  0  0  0  0  0  0  0  0  0  0  0
   26.1701   -3.2510   16.6072 H   0  0  0  0  0  0  0  0  0  0  0  0
   27.5006   -3.0758   13.5934 C   0  0  0  0  0  0  0  0  0  0  0  0
   26.9563   -3.9118   12.6131 C   0  0  0  0  0  0  0  0  0  0  0  0
   25.5784   -3.9457   12.4454 C   0  0  0  0  0  0  0  0  0  0  0  0
   24.7521   -3.1651   13.2505 C   0  0  0  0  0  0  0  0  0  0  0  0
   25.2827   -2.3316   14.2265 C   0  0  0  0  0  0  0  0  0  0  0  0
   26.6708   -2.2712   14.3969 C   0  0  0  0  0  0  0  0  0  0  0  0
   23.3980   -3.2083   13.0788 O   0  0  0  0  0  0  0  0  0  0  0  0
   24.9844   -4.7313   11.4979 O   0  0  0  0  0  0  0  0  0  0  0  0
   23.2593   -3.8541   12.3572 H   0  0  0  0  0  0  0  0  0  0  0  0
   25.6806   -5.2089   11.0144 H   0  0  0  0  0  0  0  0  0  0  0  0
 18 19  2  0  0  0
 19 20  1  0  0  0
 20 21  2  0  0  0
 21 22  1  0  0  0
 22 23  2  0  0  0
 18 23  1  0  0  0
 23  1  1  0  0  0
  1  2  2  0  0  0
  2  3  1  0  0  0
  3  4  2  0  0  0
  3  5  1  0  0  0
  5  6  2  0  0  0
  6  7  1  0  0  0
  7  8  2  0  0  0
  8  9  1  0  0  0
  9 10  2  0  0  0
  5 10  1  0  0  0
 10 11  1  0  0  0
  1 11  1  0  0  0
  8 12  1  0  0  0
  6 13  1  0  0  0
  2 14  1  0  0  0
 21 24  1  0  0  0
 20 25  1  0  0  0
 12 15  1  0  0  0
 13 16  1  0  0  0
 14 17  1  0  0  0
 24 26  1  0  0  0
 25 27  1  0  0  0
M  END
> <minimizedAffinity>
-6.57085

$$$$
Quercetin


 27 29  0  0  0  0  0  0  0  0999 V2000
   27.9988   -1.4915   14.4961 C   0  0  0  0  0  0  0  0  0  0  0  0
   28.4868   -2.3214   13.5516 C   0  0  0  0  0  0  0  0  0  0  0  0
   27.5257   -3.2092   12.8432 C   0  0  0  0  0  0  0  0  0  0  0  0
   27.8630   -3.9885   11.9550 O   0  0  0  0  0  0  0  0  0  0  0  0
   26.1163   -3.1268   13.2434 C   0  0  0  0  0  0  0  0  0  0  0  0
   25.1337   -3.9141   12.6307 C   0  0  0  0  0  0  0  0  0  0  0  0
   23.8034   -3.8189   13.0317 C   0  0  0  0  0  0  0  0  0  0  0  0
   23.4654   -2.9330   14.0505 C   0  0  0  0  0  0  0  0  0  0  0  0
   24.4335   -2.1442   14.6668 C   0  0  0  0  0  0  0  0  0  0  0  0
   25.7636   -2.2411   14.2574 C   0  0  0  0  0  0  0  0  0  0  0  0
   26.6722   -1.4324   14.8899 O   0  0  0  0  0  0  0  0  0  0  0  0
   22.1770   -2.8049   14.4779 O   0  0  0  0  0  0  0  0  0  0  0  0
   25.4090   -4.8016   11.6247 O   0  0  0  0  0  0  0  0  0  0  0  0
   29.8202   -2.4103   13.1915 O   0  0  0  0  0  0  0  0  0  0  0  0
   21.6146   -3.4095   13.9641 H   0  0  0  0  0  0  0  0  0  0  0  0
   26.3780   -4.7713   11.4471 H   0  0  0  0  0  0  0  0  0  0  0  0
   30.3582   -1.9196   13.8351 H   0  0  0  0  0  0  0  0  0  0  0  0
   29.5435   -0.9370   16.3822 C   0  0  0  0  0  0  0  0  0  0  0  0
   30.3292   -0.0278   17.0978 C   0  0  0  0  0  0  0  0  0  0  0  0
   30.4291    1.2803   16.6435 C   0  0  0  0  0  0  0  0  0  0  0  0
   29.7636    1.6759   15.4854 C   0  0  0  0  0  0  0  0  0  0  0  0
   28.9808    0.7809   14.7678 C   0  0  0  0  0  0  0  0  0  0  0  0
   28.8542   -0.5373   15.2218 C   0  0  0  0  0  0  0  0  0  0  0  0
   29.8710    2.9644   15.0461 O   0  0  0  0  0  0  0  0  0  0  0  0
   31.1701    2.2204   17.3031 O   0  0  0  0  0  0  0  0  0  0  0  0
   30.4646    3.3985   15.6913 H   0  0  0  0  0  0  0  0  0  0  0  0
   31.5670    1.8036   18.0875 H   0  0  0  0  0  0  0  0  0  0  0  0
 18 19  2  0  0  0
 19 20  1  0  0  0
 20 21  2  0  0  0
 21 22  1  0  0  0
 22 23  2  0  0  0
 18 23  1  0  0  0
 23  1  1  0  0  0
  1  2  2  0  0  0
  2  3  1  0  0  0
  3  4  2  0  0  0
  3  5  1  0  0  0
  5  6  2  0  0  0
  6  7  1  0  0  0
  7  8  2  0  0  0
  8  9  1  0  0  0
  9 10  2  0  0  0
  5 10  1  0  0  0
 10 11  1  0  0  0
  1 11  1  0  0  0
  8 12  1  0  0  0
  6 13  1  0  0  0
  2 14  1  0  0  0
 21 24  1  0  0  0
 20 25  1  0  0  0
 12 15  1  0  0  0
 13 16  1  0  0  0
 14 17  1  0  0  0
 24 26  1  0  0  0
 25 27  1  0  0  0
M  END
> <minimizedAffinity>
-6.44864

$$$$
Quercetin


 27 29  0  0  0  0  0  0  0  0999 V2000
   28.2983   -2.4414   13.4509 C   0  0  0  0  0  0  0  0  0  0  0  0
   27.9640   -1.6720   14.5069 C   0  0  0  0  0  0  0  0  0  0  0  0
   26.5473   -1.6935   14.9611 C   0  0  0  0  0  0  0  0  0  0  0  0
   26.1421   -1.0444   15.9226 O   0  0  0  0  0  0  0  0  0  0  0  0
   25.6143   -2.5398   14.2084 C   0  0  0  0  0  0  0  0  0  0  0  0
   24.2629   -2.6350   14.5626 C   0  0  0  0  0  0  0  0  0  0  0  0
   23.3977   -3.4432   13.8292 C   0  0  0  0  0  0  0  0  0  0  0  0
   23.8942   -4.1519   12.7392 C   0  0  0  0  0  0  0  0  0  0  0  0
   25.2363   -4.0660   12.3777 C   0  0  0  0  0  0  0  0  0  0  0  0
   26.0988   -3.2581   13.1192 C   0  0  0  0  0  0  0  0  0  0  0  0
   27.4117   -3.2207   12.7263 O   0  0  0  0  0  0  0  0  0  0  0  0
   23.0862   -4.9554   11.9905 O   0  0  0  0  0  0  0  0  0  0  0  0
   23.7207   -1.9607   15.6240 O   0  0  0  0  0  0  0  0  0  0  0  0
   28.8432   -0.8594   15.2013 O   0  0  0  0  0  0  0  0  0  0  0  0
   22.1849   -4.9199   12.3540 H   0  0  0  0  0  0  0  0  0  0  0  0
   24.4353   -1.4288   16.0455 H   0  0  0  0  0  0  0  0  0  0  0  0
   29.6786   -0.7982   14.7086 H   0  0  0  0  0  0  0  0  0  0  0  0
   30.0188   -2.0074   11.6896 C   0  0  0  0  0  0  0  0  0  0  0  0
   31.3209   -2.1214   11.1918 C   0  0  0  0  0  0  0  0  0  0  0  0
   32.2848   -2.7553   11.9643 C   0  0  0  0  0  0  0  0  0  0  0  0
   31.9593   -3.2602   13.2211 C   0  0  0  0  0  0  0  0  0  0  0  0
   30.6694   -3.1523   13.7244 C   0  0  0  0  0  0  0  0  0  0  0  0
   29.6806   -2.5325   12.9512 C   0  0  0  0  0  0  0  0  0  0  0  0
   32.9160   -3.8794   13.9736 O   0  0  0  0  0  0  0  0  0  0  0  0
   33.5717   -2.9104   11.5310 O   0  0  0  0  0  0  0  0  0  0  0  0
   33.7285   -3.8319   13.4309 H   0  0  0  0  0  0  0  0  0  0  0  0
   33.6465   -2.5177   10.6439 H   0  0  0  0  0  0  0  0  0  0  0  0
 18 19  2  0  0  0
 19 20  1  0  0  0
 20 21  2  0  0  0
 21 22  1  0  0  0
 22 23  2  0  0  0
 18 23  1  0  0  0
 23  1  1  0  0  0
  1  2  2  0  0  0
  2  3  1  0  0  0
  3  4  2  0  0  0
  3  5  1  0  0  0
  5  6  2  0  0  0
  6  7  1  0  0  0
  7  8  2  0  0  0
  8  9  1  0  0  0
  9 10  2  0  0  0
  5 10  1  0  0  0
 10 11  1  0  0  0
  1 11  1  0  0  0
  8 12  1  0  0  0
  6 13  1  0  0  0
  2 14  1  0  0  0
 21 24  1  0  0  0
 20 25  1  0  0  0
 12 15  1  0  0  0
 13 16  1  0  0  0
 14 17  1  0  0  0
 24 26  1  0  0  0
 25 27  1  0  0  0
M  END
> <minimizedAffinity>
-6.33541

$$$$
