Quercetin


 27 29  0  0  0  0  0  0  0  0999 V2000
   21.8062   26.1537  -12.2553 C   0  0  0  0  0  0  0  0  0  0  0  0
   21.3261   26.0573  -13.5120 C   0  0  0  0  0  0  0  0  0  0  0  0
   20.3686   27.0994  -13.9716 C   0  0  0  0  0  0  0  0  0  0  0  0
   19.8864   27.1145  -15.1018 O   0  0  0  0  0  0  0  0  0  0  0  0
   20.0035   28.1458  -13.0098 C   0  0  0  0  0  0  0  0  0  0  0  0
   19.1175   29.1756  -13.3492 C   0  0  0  0  0  0  0  0  0  0  0  0
   18.7850   30.1548  -12.4164 C   0  0  0  0  0  0  0  0  0  0  0  0
   19.3433   30.0939  -11.1430 C   0  0  0  0  0  0  0  0  0  0  0  0
   20.2262   29.0751  -10.7939 C   0  0  0  0  0  0  0  0  0  0  0  0
   20.5586   28.0998  -11.7344 C   0  0  0  0  0  0  0  0  0  0  0  0
   21.4419   27.1279  -11.3407 O   0  0  0  0  0  0  0  0  0  0  0  0
   19.0478   31.0289  -10.1957 O   0  0  0  0  0  0  0  0  0  0  0  0
   18.5390   29.2847  -14.5857 O   0  0  0  0  0  0  0  0  0  0  0  0
   21.6576   25.0569  -14.4091 O   0  0  0  0  0  0  0  0  0  0  0  0
   18.4257   31.6734  -10.5744 H   0  0  0  0  0  0  0  0  0  0  0  0
   18.8539   28.5317  -15.1380 H   0  0  0  0  0  0  0  0  0  0  0  0
   22.1410   24.3556  -13.9412 H   0  0  0  0  0  0  0  0  0  0  0  0
   22.4744   23.8416  -11.5784 C   0  0  0  0  0  0  0  0  0  0  0  0
   23.3953   22.9401  -11.0348 C   0  0  0  0  0  0  0  0  0  0  0  0
   24.6414   23.4065  -10.6383 C   0  0  0  0  0  0  0  0  0  0  0  0
   24.9707   24.7515  -10.7906 C   0  0  0  0  0  0  0  0  0  0  0  0
   24.0633   25.6546  -11.3290 C   0  0  0  0  0  0  0  0  0  0  0  0
   22.7957   25.2050  -11.7172 C   0  0  0  0  0  0  0  0  0  0  0  0
   26.2003   25.1989  -10.3996 O   0  0  0  0  0  0  0  0  0  0  0  0
   25.5814   22.5805  -10.0887 O   0  0  0  0  0  0  0  0  0  0  0  0
   26.6599   24.4026  -10.0653 H   0  0  0  0  0  0  0  0  0  0  0  0
   25.2105   21.6823  -10.0406 H   0  0  0  0  0  0  0  0  0  0  0  0
 18 19  2  0  0  0
 19 20  1  0  0  0
 20 21  2  0  0  0
 21 22  1  0  0  0
 22 23  2  0  0  0
 18 23  1  0  0  0
 23  1  1  0  0  0
  1  2  2  0  0  0
  2  3  1  0  0  0
  3  4  2  0  0  0
  3  5  1  0  0  0
  5  6  2  0  0  0
  6  7  1  0  0  0
  7  8  2  0  0  0
  8  9  1  0  0  0
  9 10  2  0  0  0
  5 10  1  0  0  0
 10 11  1  0  0  0
  1 11  1  0  0  0
  8 12  1  0  0  0
  6 13  1  0  0  0
  2 14  1  0  0  0
 21 24  1  0  0  0
 20 25  1  0  0  0
 12 15  1  0  0  0
 13 16  1  0  0  0
 14 17  1  0  0  0
 24 26  1  0  0  0
 25 27  1  0  0  0
M  END
> <minimizedAffinity>
-6.78295

$$$$
Quercetin


 27 29  0  0  0  0  0  0  0  0999 V2000
   22.3741   26.8454  -11.8452 C   0  0  0  0  0  0  0  0  0  0  0  0
   21.7160   26.1047  -12.7603 C   0  0  0  0  0  0  0  0  0  0  0  0
   22.2597   24.7585  -13.0854 C   0  0  0  0  0  0  0  0  0  0  0  0
   21.7276   23.9974  -13.8902 O   0  0  0  0  0  0  0  0  0  0  0  0
   23.4880   24.3468  -12.3961 C   0  0  0  0  0  0  0  0  0  0  0  0
   24.0730   23.0956  -12.6266 C   0  0  0  0  0  0  0  0  0  0  0  0
   25.2409   22.7307  -11.9614 C   0  0  0  0  0  0  0  0  0  0  0  0
   25.8189   23.6272  -11.0675 C   0  0  0  0  0  0  0  0  0  0  0  0
   25.2461   24.8739  -10.8293 C   0  0  0  0  0  0  0  0  0  0  0  0
   24.0736   25.2316  -11.4955 C   0  0  0  0  0  0  0  0  0  0  0  0
   23.5467   26.4656  -11.2136 O   0  0  0  0  0  0  0  0  0  0  0  0
   26.9623   23.3157  -10.3931 O   0  0  0  0  0  0  0  0  0  0  0  0
   23.5483   22.1752  -13.4943 O   0  0  0  0  0  0  0  0  0  0  0  0
   20.5690   26.5054  -13.4231 O   0  0  0  0  0  0  0  0  0  0  0  0
   27.2473   22.4234  -10.6546 H   0  0  0  0  0  0  0  0  0  0  0  0
   22.7353   22.5620  -13.8953 H   0  0  0  0  0  0  0  0  0  0  0  0
   20.4188   27.4513  -13.2584 H   0  0  0  0  0  0  0  0  0  0  0  0
   22.4788   29.3419  -11.9296 C   0  0  0  0  0  0  0  0  0  0  0  0
   22.0544   30.6030  -11.4987 C   0  0  0  0  0  0  0  0  0  0  0  0
   21.0383   30.6866  -10.5562 C   0  0  0  0  0  0  0  0  0  0  0  0
   20.4448   29.5295  -10.0567 C   0  0  0  0  0  0  0  0  0  0  0  0
   20.8590   28.2727  -10.4779 C   0  0  0  0  0  0  0  0  0  0  0  0
   21.8948   28.1694  -11.4139 C   0  0  0  0  0  0  0  0  0  0  0  0
   19.4443   29.6235   -9.1320 O   0  0  0  0  0  0  0  0  0  0  0  0
   20.5863   31.8870  -10.0847 O   0  0  0  0  0  0  0  0  0  0  0  0
   19.3204   30.5844   -8.9964 H   0  0  0  0  0  0  0  0  0  0  0  0
   21.0935   32.5969  -10.5154 H   0  0  0  0  0  0  0  0  0  0  0  0
 18 19  2  0  0  0
 19 20  1  0  0  0
 20 21  2  0  0  0
 21 22  1  0  0  0
 22 23  2  0  0  0
 18 23  1  0  0  0
 23  1  1  0  0  0
  1  2  2  0  0  0
  2  3  1  0  0  0
  3  4  2  0  0  0
  3  5  1  0  0  0
  5  6  2  0  0  0
  6  7  1  0  0  0
  7  8  2  0  0  0
  8  9  1  0  0  0
  9 10  2  0  0  0
  5 10  1  0  0  0
 10 11  1  0  0  0
  1 11  1  0  0  0
  8 12  1  0  0  0
  6 13  1  0  0  0
  2 14  1  0  0  0
 21 24  1  0  0  0
 20 25  1  0  0  0
 12 15  1  0  0  0
 13 16  1  0  0  0
 14 17  1  0  0  0
 24 26  1  0  0  0
 25 27  1  0  0  0
M  END
> <minimizedAffinity>
-6.60579

$$$$
Quercetin


 27 29  0  0  0  0  0  0  0  0999 V2000
   21.9074   27.2274  -12.3890 C   0  0  0  0  0  0  0  0  0  0  0  0
   22.9103   27.6012  -13.2097 C   0  0  0  0  0  0  0  0  0  0  0  0
   23.7532   26.5311  -13.8084 C   0  0  0  0  0  0  0  0  0  0  0  0
   24.6796   26.7621  -14.5820 O   0  0  0  0  0  0  0  0  0  0  0  0
   23.4387   25.1455  -13.4417 C   0  0  0  0  0  0  0  0  0  0  0  0
   24.1675   24.0675  -13.9590 C   0  0  0  0  0  0  0  0  0  0  0  0
   23.8504   22.7621  -13.5922 C   0  0  0  0  0  0  0  0  0  0  0  0
   22.8019   22.5446  -12.7033 C   0  0  0  0  0  0  0  0  0  0  0  0
   22.0693   23.6083  -12.1827 C   0  0  0  0  0  0  0  0  0  0  0  0
   22.3891   24.9134  -12.5577 C   0  0  0  0  0  0  0  0  0  0  0  0
   21.6272   25.9209  -12.0246 O   0  0  0  0  0  0  0  0  0  0  0  0
   22.4544   21.2849  -12.3139 O   0  0  0  0  0  0  0  0  0  0  0  0
   25.2079   24.2227  -14.8359 O   0  0  0  0  0  0  0  0  0  0  0  0
   23.2162   28.9107  -13.5368 O   0  0  0  0  0  0  0  0  0  0  0  0
   23.0443   20.6474  -12.7515 H   0  0  0  0  0  0  0  0  0  0  0  0
   25.3257   25.1869  -15.0028 H   0  0  0  0  0  0  0  0  0  0  0  0
   22.7179   29.5097  -12.9560 H   0  0  0  0  0  0  0  0  0  0  0  0
   21.1119   28.5586  -10.4280 C   0  0  0  0  0  0  0  0  0  0  0  0
   20.2167   29.4550   -9.8354 C   0  0  0  0  0  0  0  0  0  0  0  0
   19.1976   29.9984  -10.6060 C   0  0  0  0  0  0  0  0  0  0  0  0
   19.0774   29.6618  -11.9524 C   0  0  0  0  0  0  0  0  0  0  0  0
   19.9610   28.7726  -12.5502 C   0  0  0  0  0  0  0  0  0  0  0  0
   20.9833   28.2011  -11.7834 C   0  0  0  0  0  0  0  0  0  0  0  0
   18.0729   30.2044  -12.7017 O   0  0  0  0  0  0  0  0  0  0  0  0
   18.2830   30.8701  -10.0848 O   0  0  0  0  0  0  0  0  0  0  0  0
   17.5922   30.7922  -12.0849 H   0  0  0  0  0  0  0  0  0  0  0  0
   18.4883   31.0040   -9.1432 H   0  0  0  0  0  0  0  0  0  0  0  0
 18 19  2  0  0  0
 19 20  1  0  0  0
 20 21  2  0  0  0
 21 22  1  0  0  0
 22 23  2  0  0  0
 18 23  1  0  0  0
 23  1  1  0  0  0
  1  2  2  0  0  0
  2  3  1  0  0  0
  3  4  2  0  0  0
  3  5  1  0  0  0
  5  6  2  0  0  0
  6  7  1  0  0  0
  7  8  2  0  0  0
  8  9  1  0  0  0
  9 10  2  0  0  0
  5 10  1  0  0  0
 10 11  1  0  0  0
  1 11  1  0  0  0
  8 12  1  0  0  0
  6 13  1  0  0  0
  2 14  1  0  0  0
 21 24  1  0  0  0
 20 25  1  0  0  0
 12 15  1  0  0  0
 13 16  1  0  0  0
 14 17  1  0  0  0
 24 26  1  0  0  0
 25 27  1  0  0  0
M  END
> <minimizedAffinity>
-6.15336

$$$$
Quercetin


 27 29  0  0  0  0  0  0  0  0999 V2000
   22.5557   25.8534  -12.5498 C   0  0  0  0  0  0  0  0  0  0  0  0
   23.5594   26.5972  -13.0582 C   0  0  0  0  0  0  0  0  0  0  0  0
   23.6252   28.0324  -12.6711 C   0  0  0  0  0  0  0  0  0  0  0  0
   24.5077   28.7923  -13.0633 O   0  0  0  0  0  0  0  0  0  0  0  0
   22.5756   28.5348  -11.7771 C   0  0  0  0  0  0  0  0  0  0  0  0
   22.5549   29.8676  -11.3482 C   0  0  0  0  0  0  0  0  0  0  0  0
   21.5454   30.3198  -10.5021 C   0  0  0  0  0  0  0  0  0  0  0  0
   20.5573   29.4299  -10.0915 C   0  0  0  0  0  0  0  0  0  0  0  0
   20.5676   28.1020  -10.5106 C   0  0  0  0  0  0  0  0  0  0  0  0
   21.5842   27.6542  -11.3547 C   0  0  0  0  0  0  0  0  0  0  0  0
   21.5519   26.3347  -11.7258 O   0  0  0  0  0  0  0  0  0  0  0  0
   19.5483   29.8257   -9.2642 O   0  0  0  0  0  0  0  0  0  0  0  0
   23.5004   30.7858  -11.7204 O   0  0  0  0  0  0  0  0  0  0  0  0
   24.5356   26.1240  -13.9175 O   0  0  0  0  0  0  0  0  0  0  0  0
   19.6666   30.7678   -9.0538 H   0  0  0  0  0  0  0  0  0  0  0  0
   24.1438   30.3372  -12.3171 H   0  0  0  0  0  0  0  0  0  0  0  0
   24.2857   25.2376  -14.2276 H   0  0  0  0  0  0  0  0  0  0  0  0
   22.9568   23.4636  -11.9345 C   0  0  0  0  0  0  0  0  0  0  0  0
   22.8700   22.0949  -12.2087 C   0  0  0  0  0  0  0  0  0  0  0  0
   22.2433   21.6797  -13.3760 C   0  0  0  0  0  0  0  0  0  0  0  0
   21.7004   22.6147  -14.2543 C   0  0  0  0  0  0  0  0  0  0  0  0
   21.7815   23.9760  -13.9913 C   0  0  0  0  0  0  0  0  0  0  0  0
   22.4262   24.4131  -12.8281 C   0  0  0  0  0  0  0  0  0  0  0  0
   21.0838   22.1951  -15.3982 O   0  0  0  0  0  0  0  0  0  0  0  0
   22.1361   20.3584  -13.7086 O   0  0  0  0  0  0  0  0  0  0  0  0
   21.1403   21.2189  -15.3674 H   0  0  0  0  0  0  0  0  0  0  0  0
   22.5617   19.8305  -13.0109 H   0  0  0  0  0  0  0  0  0  0  0  0
 18 19  2  0  0  0
 19 20  1  0  0  0
 20 21  2  0  0  0
 21 22  1  0  0  0
 22 23  2  0  0  0
 18 23  1  0  0  0
 23  1  1  0  0  0
  1  2  2  0  0  0
  2  3  1  0  0  0
  3  4  2  0  0  0
  3  5  1  0  0  0
  5  6  2  0  0  0
  6  7  1  0  0  0
  7  8  2  0  0  0
  8  9  1  0  0  0
  9 10  2  0  0  0
  5 10  1  0  0  0
 10 11  1  0  0  0
  1 11  1  0  0  0
  8 12  1  0  0  0
  6 13  1  0  0  0
  2 14  1  0  0  0
 21 24  1  0  0  0
 20 25  1  0  0  0
 12 15  1  0  0  0
 13 16  1  0  0  0
 14 17  1  0  0  0
 24 26  1  0  0  0
 25 27  1  0  0  0
M  END
> <minimizedAffinity>
-6.13912

$$$$
Quercetin


 27 29  0  0  0  0  0  0  0  0999 V2000
   21.2738   27.5709  -12.3246 C   0  0  0  0  0  0  0  0  0  0  0  0
   20.5331   27.7874  -13.4306 C   0  0  0  0  0  0  0  0  0  0  0  0
   20.3460   26.6524  -14.3744 C   0  0  0  0  0  0  0  0  0  0  0  0
   19.6757   26.7380  -15.4008 O   0  0  0  0  0  0  0  0  0  0  0  0
   21.0021   25.3841  -14.0366 C   0  0  0  0  0  0  0  0  0  0  0  0
   20.8791   24.2549  -14.8556 C   0  0  0  0  0  0  0  0  0  0  0  0
   21.5149   23.0640  -14.5136 C   0  0  0  0  0  0  0  0  0  0  0  0
   22.2753   23.0129  -13.3491 C   0  0  0  0  0  0  0  0  0  0  0  0
   22.4045   24.1289  -12.5262 C   0  0  0  0  0  0  0  0  0  0  0  0
   21.7614   25.3176  -12.8721 C   0  0  0  0  0  0  0  0  0  0  0  0
   21.9127   26.3805  -12.0195 O   0  0  0  0  0  0  0  0  0  0  0  0
   22.9169   21.8701  -12.9728 O   0  0  0  0  0  0  0  0  0  0  0  0
   20.1447   24.2482  -16.0114 O   0  0  0  0  0  0  0  0  0  0  0  0
   19.9328   28.9914  -13.7555 O   0  0  0  0  0  0  0  0  0  0  0  0
   22.7402   21.1791  -13.6339 H   0  0  0  0  0  0  0  0  0  0  0  0
   19.7587   25.1467  -16.1335 H   0  0  0  0  0  0  0  0  0  0  0  0
   20.2692   29.6857  -13.1646 H   0  0  0  0  0  0  0  0  0  0  0  0
   20.5134   28.8293  -10.3025 C   0  0  0  0  0  0  0  0  0  0  0  0
   20.6847   29.8377   -9.3486 C   0  0  0  0  0  0  0  0  0  0  0  0
   21.8309   30.6200   -9.3931 C   0  0  0  0  0  0  0  0  0  0  0  0
   22.7994   30.3945  -10.3686 C   0  0  0  0  0  0  0  0  0  0  0  0
   22.6387   29.3959  -11.3203 C   0  0  0  0  0  0  0  0  0  0  0  0
   21.4805   28.6098  -11.3014 C   0  0  0  0  0  0  0  0  0  0  0  0
   23.9243   31.1682  -10.4014 O   0  0  0  0  0  0  0  0  0  0  0  0
   22.0530   31.6290   -8.4985 O   0  0  0  0  0  0  0  0  0  0  0  0
   23.8238   31.7851   -9.6489 H   0  0  0  0  0  0  0  0  0  0  0  0
   21.2962   31.6706   -7.8883 H   0  0  0  0  0  0  0  0  0  0  0  0
 18 19  2  0  0  0
 19 20  1  0  0  0
 20 21  2  0  0  0
 21 22  1  0  0  0
 22 23  2  0  0  0
 18 23  1  0  0  0
 23  1  1  0  0  0
  1  2  2  0  0  0
  2  3  1  0  0  0
  3  4  2  0  0  0
  3  5  1  0  0  0
  5  6  2  0  0  0
  6  7  1  0  0  0
  7  8  2  0  0  0
  8  9  1  0  0  0
  9 10  2  0  0  0
  5 10  1  0  0  0
 10 11  1  0  0  0
  1 11  1  0  0  0
  8 12  1  0  0  0
  6 13  1  0  0  0
  2 14  1  0  0  0
 21 24  1  0  0  0
 20 25  1  0  0  0
 12 15  1  0  0  0
 13 16  1  0  0  0
 14 17  1  0  0  0
 24 26  1  0  0  0
 25 27  1  0  0  0
M  END
> <minimizedAffinity>
-6.06606

$$$$
