Quercetin


 27 29  0  0  0  0  0  0  0  0999 V2000
   20.5824    2.3789    1.7520 C   0  0  0  0  0  0  0  0  0  0  0  0
   19.4822    1.7042    2.1438 C   0  0  0  0  0  0  0  0  0  0  0  0
   19.5930    0.8324    3.3445 C   0  0  0  0  0  0  0  0  0  0  0  0
   18.6476    0.1895    3.7952 O   0  0  0  0  0  0  0  0  0  0  0  0
   20.9032    0.7584    4.0011 C   0  0  0  0  0  0  0  0  0  0  0  0
   21.1071   -0.0267    5.1426 C   0  0  0  0  0  0  0  0  0  0  0  0
   22.3616   -0.0819    5.7447 C   0  0  0  0  0  0  0  0  0  0  0  0
   23.4090    0.6514    5.1950 C   0  0  0  0  0  0  0  0  0  0  0  0
   23.2184    1.4363    4.0607 C   0  0  0  0  0  0  0  0  0  0  0  0
   21.9581    1.4908    3.4648 C   0  0  0  0  0  0  0  0  0  0  0  0
   21.8245    2.2890    2.3582 O   0  0  0  0  0  0  0  0  0  0  0  0
   24.6550    0.6289    5.7483 O   0  0  0  0  0  0  0  0  0  0  0  0
   20.1139   -0.7678    5.7254 O   0  0  0  0  0  0  0  0  0  0  0  0
   18.2536    1.7611    1.5093 O   0  0  0  0  0  0  0  0  0  0  0  0
   24.6421    0.0460    6.5267 H   0  0  0  0  0  0  0  0  0  0  0  0
   19.2900   -0.6421    5.1993 H   0  0  0  0  0  0  0  0  0  0  0  0
   18.3557    2.2143    0.6557 H   0  0  0  0  0  0  0  0  0  0  0  0
   20.7424    2.8239   -0.7029 C   0  0  0  0  0  0  0  0  0  0  0  0
   20.7678    3.7013   -1.7917 C   0  0  0  0  0  0  0  0  0  0  0  0
   20.6114    5.0621   -1.5646 C   0  0  0  0  0  0  0  0  0  0  0  0
   20.4217    5.5424   -0.2708 C   0  0  0  0  0  0  0  0  0  0  0  0
   20.3952    4.6794    0.8170 C   0  0  0  0  0  0  0  0  0  0  0  0
   20.5696    3.3063    0.6081 C   0  0  0  0  0  0  0  0  0  0  0  0
   20.2662    6.8825   -0.0592 O   0  0  0  0  0  0  0  0  0  0  0  0
   20.6387    5.9731   -2.5830 O   0  0  0  0  0  0  0  0  0  0  0  0
   20.3121    7.2821   -0.9510 H   0  0  0  0  0  0  0  0  0  0  0  0
   20.7832    5.4957   -3.4183 H   0  0  0  0  0  0  0  0  0  0  0  0
 18 19  2  0  0  0
 19 20  1  0  0  0
 20 21  2  0  0  0
 21 22  1  0  0  0
 22 23  2  0  0  0
 18 23  1  0  0  0
 23  1  1  0  0  0
  1  2  2  0  0  0
  2  3  1  0  0  0
  3  4  2  0  0  0
  3  5  1  0  0  0
  5  6  2  0  0  0
  6  7  1  0  0  0
  7  8  2  0  0  0
  8  9  1  0  0  0
  9 10  2  0  0  0
  5 10  1  0  0  0
 10 11  1  0  0  0
  1 11  1  0  0  0
  8 12  1  0  0  0
  6 13  1  0  0  0
  2 14  1  0  0  0
 21 24  1  0  0  0
 20 25  1  0  0  0
 12 15  1  0  0  0
 13 16  1  0  0  0
 14 17  1  0  0  0
 24 26  1  0  0  0
 25 27  1  0  0  0
M  END
> <minimizedAffinity>
-8.53734

$$$$
Quercetin


 27 29  0  0  0  0  0  0  0  0999 V2000
   18.6406    1.8500    2.7419 C   0  0  0  0  0  0  0  0  0  0  0  0
   18.5228    2.9841    2.0216 C   0  0  0  0  0  0  0  0  0  0  0  0
   19.7646    3.5852    1.4644 C   0  0  0  0  0  0  0  0  0  0  0  0
   19.7662    4.6060    0.7802 O   0  0  0  0  0  0  0  0  0  0  0  0
   21.0305    2.9046    1.7603 C   0  0  0  0  0  0  0  0  0  0  0  0
   22.2521    3.3863    1.2742 C   0  0  0  0  0  0  0  0  0  0  0  0
   23.4398    2.7231    1.5724 C   0  0  0  0  0  0  0  0  0  0  0  0
   23.3955    1.5775    2.3615 C   0  0  0  0  0  0  0  0  0  0  0  0
   22.1868    1.0883    2.8501 C   0  0  0  0  0  0  0  0  0  0  0  0
   21.0000    1.7549    2.5440 C   0  0  0  0  0  0  0  0  0  0  0  0
   19.8385    1.2223    3.0409 O   0  0  0  0  0  0  0  0  0  0  0  0
   24.5314    0.8943    2.6810 O   0  0  0  0  0  0  0  0  0  0  0  0
   22.3548    4.5074    0.4944 O   0  0  0  0  0  0  0  0  0  0  0  0
   17.3287    3.6340    1.7622 O   0  0  0  0  0  0  0  0  0  0  0  0
   25.2925    1.3444    2.2759 H   0  0  0  0  0  0  0  0  0  0  0  0
   21.4494    4.8757    0.3679 H   0  0  0  0  0  0  0  0  0  0  0  0
   16.6290    3.2499    2.3165 H   0  0  0  0  0  0  0  0  0  0  0  0
   16.3882    0.8005    2.4668 C   0  0  0  0  0  0  0  0  0  0  0  0
   15.2587    0.1641    2.9916 C   0  0  0  0  0  0  0  0  0  0  0  0
   15.2212   -0.1325    4.3475 C   0  0  0  0  0  0  0  0  0  0  0  0
   16.2989    0.1909    5.1687 C   0  0  0  0  0  0  0  0  0  0  0  0
   17.4248    0.8230    4.6574 C   0  0  0  0  0  0  0  0  0  0  0  0
   17.4718    1.1460    3.2961 C   0  0  0  0  0  0  0  0  0  0  0  0
   16.2524   -0.1080    6.5004 O   0  0  0  0  0  0  0  0  0  0  0  0
   14.1427   -0.7420    4.9248 O   0  0  0  0  0  0  0  0  0  0  0  0
   15.3868   -0.5458    6.6270 H   0  0  0  0  0  0  0  0  0  0  0  0
   13.4737   -0.8993    4.2361 H   0  0  0  0  0  0  0  0  0  0  0  0
 18 19  2  0  0  0
 19 20  1  0  0  0
 20 21  2  0  0  0
 21 22  1  0  0  0
 22 23  2  0  0  0
 18 23  1  0  0  0
 23  1  1  0  0  0
  1  2  2  0  0  0
  2  3  1  0  0  0
  3  4  2  0  0  0
  3  5  1  0  0  0
  5  6  2  0  0  0
  6  7  1  0  0  0
  7  8  2  0  0  0
  8  9  1  0  0  0
  9 10  2  0  0  0
  5 10  1  0  0  0
 10 11  1  0  0  0
  1 11  1  0  0  0
  8 12  1  0  0  0
  6 13  1  0  0  0
  2 14  1  0  0  0
 21 24  1  0  0  0
 20 25  1  0  0  0
 12 15  1  0  0  0
 13 16  1  0  0  0
 14 17  1  0  0  0
 24 26  1  0  0  0
 25 27  1  0  0  0
M  END
> <minimizedAffinity>
-8.43229

$$$$
Quercetin


 27 29  0  0  0  0  0  0  0  0999 V2000
   21.8218    2.9065    1.8624 C   0  0  0  0  0  0  0  0  0  0  0  0
   23.0888    3.0162    2.3115 C   0  0  0  0  0  0  0  0  0  0  0  0
   23.4865    2.1839    3.4789 C   0  0  0  0  0  0  0  0  0  0  0  0
   24.6194    2.1948    3.9548 O   0  0  0  0  0  0  0  0  0  0  0  0
   22.4578    1.3182    4.0669 C   0  0  0  0  0  0  0  0  0  0  0  0
   22.7354    0.4904    5.1618 C   0  0  0  0  0  0  0  0  0  0  0  0
   21.7400   -0.3193    5.7030 C   0  0  0  0  0  0  0  0  0  0  0  0
   20.4665   -0.2923    5.1425 C   0  0  0  0  0  0  0  0  0  0  0  0
   20.1784    0.5260    4.0531 C   0  0  0  0  0  0  0  0  0  0  0  0
   21.1812    1.3315    3.5128 C   0  0  0  0  0  0  0  0  0  0  0  0
   20.8453    2.1074    2.4336 O   0  0  0  0  0  0  0  0  0  0  0  0
   19.4591   -1.0664    5.6377 O   0  0  0  0  0  0  0  0  0  0  0  0
   23.9690    0.4239    5.7528 O   0  0  0  0  0  0  0  0  0  0  0  0
   24.0501    3.8494    1.7664 O   0  0  0  0  0  0  0  0  0  0  0  0
   19.7998   -1.5814    6.3891 H   0  0  0  0  0  0  0  0  0  0  0  0
   24.5691    1.0454    5.2784 H   0  0  0  0  0  0  0  0  0  0  0  0
   23.6266    4.4570    1.1373 H   0  0  0  0  0  0  0  0  0  0  0  0
   21.2731    3.0195   -0.5741 C   0  0  0  0  0  0  0  0  0  0  0  0
   20.8498    3.7252   -1.7050 C   0  0  0  0  0  0  0  0  0  0  0  0
   20.4847    5.0580   -1.5703 C   0  0  0  0  0  0  0  0  0  0  0  0
   20.5304    5.6777   -0.3236 C   0  0  0  0  0  0  0  0  0  0  0  0
   20.9494    4.9858    0.8054 C   0  0  0  0  0  0  0  0  0  0  0  0
   21.3387    3.6466    0.6844 C   0  0  0  0  0  0  0  0  0  0  0  0
   20.1664    6.9883   -0.2021 O   0  0  0  0  0  0  0  0  0  0  0  0
   20.0741    5.8067   -2.6374 O   0  0  0  0  0  0  0  0  0  0  0  0
   19.9076    7.2592   -1.1058 H   0  0  0  0  0  0  0  0  0  0  0  0
   20.0991    5.2471   -3.4330 H   0  0  0  0  0  0  0  0  0  0  0  0
 18 19  2  0  0  0
 19 20  1  0  0  0
 20 21  2  0  0  0
 21 22  1  0  0  0
 22 23  2  0  0  0
 18 23  1  0  0  0
 23  1  1  0  0  0
  1  2  2  0  0  0
  2  3  1  0  0  0
  3  4  2  0  0  0
  3  5  1  0  0  0
  5  6  2  0  0  0
  6  7  1  0  0  0
  7  8  2  0  0  0
  8  9  1  0  0  0
  9 10  2  0  0  0
  5 10  1  0  0  0
 10 11  1  0  0  0
  1 11  1  0  0  0
  8 12  1  0  0  0
  6 13  1  0  0  0
  2 14  1  0  0  0
 21 24  1  0  0  0
 20 25  1  0  0  0
 12 15  1  0  0  0
 13 16  1  0  0  0
 14 17  1  0  0  0
 24 26  1  0  0  0
 25 27  1  0  0  0
M  END
> <minimizedAffinity>
-8.40249

$$$$
Quercetin


 27 29  0  0  0  0  0  0  0  0999 V2000
   20.3400    2.3590    1.5981 C   0  0  0  0  0  0  0  0  0  0  0  0
   21.6685    2.5338    1.7507 C   0  0  0  0  0  0  0  0  0  0  0  0
   22.4308    3.0996    0.6050 C   0  0  0  0  0  0  0  0  0  0  0  0
   23.6399    3.3151    0.6457 O   0  0  0  0  0  0  0  0  0  0  0  0
   21.6769    3.4067   -0.6159 C   0  0  0  0  0  0  0  0  0  0  0  0
   22.3015    3.9504   -1.7452 C   0  0  0  0  0  0  0  0  0  0  0  0
   21.5634    4.2296   -2.8926 C   0  0  0  0  0  0  0  0  0  0  0  0
   20.1983    3.9586   -2.9018 C   0  0  0  0  0  0  0  0  0  0  0  0
   19.5658    3.4187   -1.7849 C   0  0  0  0  0  0  0  0  0  0  0  0
   20.3101    3.1454   -0.6370 C   0  0  0  0  0  0  0  0  0  0  0  0
   19.6340    2.6264    0.4369 O   0  0  0  0  0  0  0  0  0  0  0  0
   19.4338    4.2140   -4.0016 O   0  0  0  0  0  0  0  0  0  0  0  0
   23.6399    4.2367   -1.7920 O   0  0  0  0  0  0  0  0  0  0  0  0
   22.3790    2.2237    2.8972 O   0  0  0  0  0  0  0  0  0  0  0  0
   20.0013    4.5858   -4.6985 H   0  0  0  0  0  0  0  0  0  0  0  0
   24.0364    3.9871   -0.9250 H   0  0  0  0  0  0  0  0  0  0  0  0
   21.8117    1.7085    3.4949 H   0  0  0  0  0  0  0  0  0  0  0  0
   18.2264    2.4357    2.9314 C   0  0  0  0  0  0  0  0  0  0  0  0
   17.4226    1.9856    3.9837 C   0  0  0  0  0  0  0  0  0  0  0  0
   17.8781    0.9455    4.7827 C   0  0  0  0  0  0  0  0  0  0  0  0
   19.1137    0.3537    4.5309 C   0  0  0  0  0  0  0  0  0  0  0  0
   19.9195    0.7934    3.4887 C   0  0  0  0  0  0  0  0  0  0  0  0
   19.4840    1.8533    2.6846 C   0  0  0  0  0  0  0  0  0  0  0  0
   19.5507   -0.6705    5.3214 O   0  0  0  0  0  0  0  0  0  0  0  0
   17.1470    0.4675    5.8339 O   0  0  0  0  0  0  0  0  0  0  0  0
   18.8309   -0.8092    5.9691 H   0  0  0  0  0  0  0  0  0  0  0  0
   16.3198    0.9766    5.8894 H   0  0  0  0  0  0  0  0  0  0  0  0
 18 19  2  0  0  0
 19 20  1  0  0  0
 20 21  2  0  0  0
 21 22  1  0  0  0
 22 23  2  0  0  0
 18 23  1  0  0  0
 23  1  1  0  0  0
  1  2  2  0  0  0
  2  3  1  0  0  0
  3  4  2  0  0  0
  3  5  1  0  0  0
  5  6  2  0  0  0
  6  7  1  0  0  0
  7  8  2  0  0  0
  8  9  1  0  0  0
  9 10  2  0  0  0
  5 10  1  0  0  0
 10 11  1  0  0  0
  1 11  1  0  0  0
  8 12  1  0  0  0
  6 13  1  0  0  0
  2 14  1  0  0  0
 21 24  1  0  0  0
 20 25  1  0  0  0
 12 15  1  0  0  0
 13 16  1  0  0  0
 14 17  1  0  0  0
 24 26  1  0  0  0
 25 27  1  0  0  0
M  END
> <minimizedAffinity>
-8.30182

$$$$
Quercetin


 27 29  0  0  0  0  0  0  0  0999 V2000
   22.1317    3.1510    1.3412 C   0  0  0  0  0  0  0  0  0  0  0  0
   21.6411    2.1995    2.1616 C   0  0  0  0  0  0  0  0  0  0  0  0
   22.5349    1.6744    3.2289 C   0  0  0  0  0  0  0  0  0  0  0  0
   22.1812    0.8208    4.0391 O   0  0  0  0  0  0  0  0  0  0  0  0
   23.8950    2.2212    3.2939 C   0  0  0  0  0  0  0  0  0  0  0  0
   24.8086    1.7986    4.2675 C   0  0  0  0  0  0  0  0  0  0  0  0
   26.0947    2.3313    4.3052 C   0  0  0  0  0  0  0  0  0  0  0  0
   26.4595    3.2867    3.3611 C   0  0  0  0  0  0  0  0  0  0  0  0
   25.5597    3.7155    2.3887 C   0  0  0  0  0  0  0  0  0  0  0  0
   24.2713    3.1811    2.3591 C   0  0  0  0  0  0  0  0  0  0  0  0
   23.4235    3.6485    1.3883 O   0  0  0  0  0  0  0  0  0  0  0  0
   27.7071    3.8368    3.3571 O   0  0  0  0  0  0  0  0  0  0  0  0
   24.5043    0.8626    5.2197 O   0  0  0  0  0  0  0  0  0  0  0  0
   20.3640    1.6720    2.0837 O   0  0  0  0  0  0  0  0  0  0  0  0
   28.2234    3.4485    4.0840 H   0  0  0  0  0  0  0  0  0  0  0  0
   23.5746    0.5694    5.0740 H   0  0  0  0  0  0  0  0  0  0  0  0
   19.9487    1.9619    1.2543 H   0  0  0  0  0  0  0  0  0  0  0  0
   21.2376    3.1889   -0.9933 C   0  0  0  0  0  0  0  0  0  0  0  0
   20.4953    3.7929   -2.0132 C   0  0  0  0  0  0  0  0  0  0  0  0
   19.8260    4.9800   -1.7474 C   0  0  0  0  0  0  0  0  0  0  0  0
   19.8864    5.5532   -0.4792 C   0  0  0  0  0  0  0  0  0  0  0  0
   20.6209    4.9615    0.5402 C   0  0  0  0  0  0  0  0  0  0  0  0
   21.3168    3.7741    0.2845 C   0  0  0  0  0  0  0  0  0  0  0  0
   19.2220    6.7196   -0.2281 O   0  0  0  0  0  0  0  0  0  0  0  0
   19.0939    5.6270   -2.7030 O   0  0  0  0  0  0  0  0  0  0  0  0
   18.7793    6.9403   -1.0721 H   0  0  0  0  0  0  0  0  0  0  0  0
   19.1488    5.1169   -3.5297 H   0  0  0  0  0  0  0  0  0  0  0  0
 18 19  2  0  0  0
 19 20  1  0  0  0
 20 21  2  0  0  0
 21 22  1  0  0  0
 22 23  2  0  0  0
 18 23  1  0  0  0
 23  1  1  0  0  0
  1  2  2  0  0  0
  2  3  1  0  0  0
  3  4  2  0  0  0
  3  5  1  0  0  0
  5  6  2  0  0  0
  6  7  1  0  0  0
  7  8  2  0  0  0
  8  9  1  0  0  0
  9 10  2  0  0  0
  5 10  1  0  0  0
 10 11  1  0  0  0
  1 11  1  0  0  0
  8 12  1  0  0  0
  6 13  1  0  0  0
  2 14  1  0  0  0
 21 24  1  0  0  0
 20 25  1  0  0  0
 12 15  1  0  0  0
 13 16  1  0  0  0
 14 17  1  0  0  0
 24 26  1  0  0  0
 25 27  1  0  0  0
M  END
> <minimizedAffinity>
-8.18140

$$$$
