Quercetin


 27 29  0  0  0  0  0  0  0  0999 V2000
   24.9332   24.9829   21.2860 C   0  0  0  0  0  0  0  0  0  0  0  0
   24.6136   23.6977   21.5408 C   0  0  0  0  0  0  0  0  0  0  0  0
   25.1505   22.6540   20.6263 C   0  0  0  0  0  0  0  0  0  0  0  0
   24.9345   21.4539   20.7790 O   0  0  0  0  0  0  0  0  0  0  0  0
   25.9743   23.1083   19.5002 C   0  0  0  0  0  0  0  0  0  0  0  0
   26.5330   22.2033   18.5893 C   0  0  0  0  0  0  0  0  0  0  0  0
   27.3086   22.6611   17.5272 C   0  0  0  0  0  0  0  0  0  0  0  0
   27.5182   24.0294   17.3826 C   0  0  0  0  0  0  0  0  0  0  0  0
   26.9686   24.9391   18.2824 C   0  0  0  0  0  0  0  0  0  0  0  0
   26.1963   24.4737   19.3469 C   0  0  0  0  0  0  0  0  0  0  0  0
   25.6905   25.4123   20.2088 O   0  0  0  0  0  0  0  0  0  0  0  0
   28.2695   24.5256   16.3587 O   0  0  0  0  0  0  0  0  0  0  0  0
   26.3597   20.8481   18.6828 O   0  0  0  0  0  0  0  0  0  0  0  0
   23.8192   23.2754   22.5925 O   0  0  0  0  0  0  0  0  0  0  0  0
   28.5867   23.7845   15.8146 H   0  0  0  0  0  0  0  0  0  0  0  0
   25.7921   20.6659   19.4677 H   0  0  0  0  0  0  0  0  0  0  0  0
   23.3949   24.0476   23.0025 H   0  0  0  0  0  0  0  0  0  0  0  0
   25.2808   26.4829   23.2557 C   0  0  0  0  0  0  0  0  0  0  0  0
   24.8563   27.5078   24.1075 C   0  0  0  0  0  0  0  0  0  0  0  0
   23.6484   28.1418   23.8495 C   0  0  0  0  0  0  0  0  0  0  0  0
   22.8775   27.7674   22.7513 C   0  0  0  0  0  0  0  0  0  0  0  0
   23.2901   26.7509   21.8996 C   0  0  0  0  0  0  0  0  0  0  0  0
   24.4965   26.0885   22.1554 C   0  0  0  0  0  0  0  0  0  0  0  0
   21.6923   28.3996   22.5053 O   0  0  0  0  0  0  0  0  0  0  0  0
   23.1710   29.1415   24.6497 O   0  0  0  0  0  0  0  0  0  0  0  0
   21.6149   29.0678   23.2156 H   0  0  0  0  0  0  0  0  0  0  0  0
   23.8071   29.2877   25.3713 H   0  0  0  0  0  0  0  0  0  0  0  0
 18 19  2  0  0  0
 19 20  1  0  0  0
 20 21  2  0  0  0
 21 22  1  0  0  0
 22 23  2  0  0  0
 18 23  1  0  0  0
 23  1  1  0  0  0
  1  2  2  0  0  0
  2  3  1  0  0  0
  3  4  2  0  0  0
  3  5  1  0  0  0
  5  6  2  0  0  0
  6  7  1  0  0  0
  7  8  2  0  0  0
  8  9  1  0  0  0
  9 10  2  0  0  0
  5 10  1  0  0  0
 10 11  1  0  0  0
  1 11  1  0  0  0
  8 12  1  0  0  0
  6 13  1  0  0  0
  2 14  1  0  0  0
 21 24  1  0  0  0
 20 25  1  0  0  0
 12 15  1  0  0  0
 13 16  1  0  0  0
 14 17  1  0  0  0
 24 26  1  0  0  0
 25 27  1  0  0  0
M  END
> <minimizedAffinity>
-6.21974

$$$$
Quercetin


 27 29  0  0  0  0  0  0  0  0999 V2000
   24.2640   25.6923   23.0075 C   0  0  0  0  0  0  0  0  0  0  0  0
   23.4396   25.4869   24.0550 C   0  0  0  0  0  0  0  0  0  0  0  0
   23.1833   26.6304   24.9718 C   0  0  0  0  0  0  0  0  0  0  0  0
   22.4357   26.5550   25.9442 O   0  0  0  0  0  0  0  0  0  0  0  0
   23.8667   27.8945   24.6748 C   0  0  0  0  0  0  0  0  0  0  0  0
   23.6839   29.0310   25.4722 C   0  0  0  0  0  0  0  0  0  0  0  0
   24.3471   30.2177   25.1700 C   0  0  0  0  0  0  0  0  0  0  0  0
   25.1951   30.2572   24.0672 C   0  0  0  0  0  0  0  0  0  0  0  0
   25.3845   29.1339   23.2663 C   0  0  0  0  0  0  0  0  0  0  0  0
   24.7136   27.9494   23.5717 C   0  0  0  0  0  0  0  0  0  0  0  0
   24.9275   26.8788   22.7424 O   0  0  0  0  0  0  0  0  0  0  0  0
   25.8667   31.3954   23.7317 O   0  0  0  0  0  0  0  0  0  0  0  0
   22.8626   29.0491   26.5679 O   0  0  0  0  0  0  0  0  0  0  0  0
   22.8131   24.2869   24.3430 O   0  0  0  0  0  0  0  0  0  0  0  0
   25.6413   32.0926   24.3712 H   0  0  0  0  0  0  0  0  0  0  0  0
   22.4661   28.1524   26.6676 H   0  0  0  0  0  0  0  0  0  0  0  0
   23.1922   23.5869   23.7857 H   0  0  0  0  0  0  0  0  0  0  0  0
   23.5861   24.3072   21.0397 C   0  0  0  0  0  0  0  0  0  0  0  0
   23.8315   23.2884   20.1134 C   0  0  0  0  0  0  0  0  0  0  0  0
   25.0442   22.6139   20.1588 C   0  0  0  0  0  0  0  0  0  0  0  0
   26.0048   22.9562   21.1078 C   0  0  0  0  0  0  0  0  0  0  0  0
   25.7708   23.9661   22.0320 C   0  0  0  0  0  0  0  0  0  0  0  0
   24.5462   24.6441   22.0123 C   0  0  0  0  0  0  0  0  0  0  0  0
   27.1953   22.2880   21.1417 O   0  0  0  0  0  0  0  0  0  0  0  0
   25.3412   21.6009   19.2908 O   0  0  0  0  0  0  0  0  0  0  0  0
   27.1382   21.6409   20.4102 H   0  0  0  0  0  0  0  0  0  0  0  0
   24.5811   21.4723   18.6972 H   0  0  0  0  0  0  0  0  0  0  0  0
 18 19  2  0  0  0
 19 20  1  0  0  0
 20 21  2  0  0  0
 21 22  1  0  0  0
 22 23  2  0  0  0
 18 23  1  0  0  0
 23  1  1  0  0  0
  1  2  2  0  0  0
  2  3  1  0  0  0
  3  4  2  0  0  0
  3  5  1  0  0  0
  5  6  2  0  0  0
  6  7  1  0  0  0
  7  8  2  0  0  0
  8  9  1  0  0  0
  9 10  2  0  0  0
  5 10  1  0  0  0
 10 11  1  0  0  0
  1 11  1  0  0  0
  8 12  1  0  0  0
  6 13  1  0  0  0
  2 14  1  0  0  0
 21 24  1  0  0  0
 20 25  1  0  0  0
 12 15  1  0  0  0
 13 16  1  0  0  0
 14 17  1  0  0  0
 24 26  1  0  0  0
 25 27  1  0  0  0
M  END
> <minimizedAffinity>
-6.20438

$$$$
Quercetin


 27 29  0  0  0  0  0  0  0  0999 V2000
   24.9514   25.1517   21.9865 C   0  0  0  0  0  0  0  0  0  0  0  0
   23.7471   25.2818   22.5797 C   0  0  0  0  0  0  0  0  0  0  0  0
   23.4652   26.5478   23.3088 C   0  0  0  0  0  0  0  0  0  0  0  0
   22.3947   26.7748   23.8680 O   0  0  0  0  0  0  0  0  0  0  0  0
   24.5326   27.5541   23.3430 C   0  0  0  0  0  0  0  0  0  0  0  0
   24.3617   28.7813   23.9955 C   0  0  0  0  0  0  0  0  0  0  0  0
   25.3921   29.7179   24.0158 C   0  0  0  0  0  0  0  0  0  0  0  0
   26.5935   29.4162   23.3812 C   0  0  0  0  0  0  0  0  0  0  0  0
   26.7751   28.1997   22.7284 C   0  0  0  0  0  0  0  0  0  0  0  0
   25.7374   27.2675   22.7079 C   0  0  0  0  0  0  0  0  0  0  0  0
   25.9667   26.0922   22.0403 O   0  0  0  0  0  0  0  0  0  0  0  0
   27.6314   30.3005   23.3745 O   0  0  0  0  0  0  0  0  0  0  0  0
   23.2025   29.1307   24.6356 O   0  0  0  0  0  0  0  0  0  0  0  0
   22.7507   24.3215   22.5623 O   0  0  0  0  0  0  0  0  0  0  0  0
   27.3663   31.0989   23.8623 H   0  0  0  0  0  0  0  0  0  0  0  0
   22.5677   28.3819   24.5486 H   0  0  0  0  0  0  0  0  0  0  0  0
   23.1144   23.4901   22.2144 H   0  0  0  0  0  0  0  0  0  0  0  0
   26.3648   23.1229   21.6166 C   0  0  0  0  0  0  0  0  0  0  0  0
   26.7402   22.0113   20.8554 C   0  0  0  0  0  0  0  0  0  0  0  0
   26.0557   21.7377   19.6788 C   0  0  0  0  0  0  0  0  0  0  0  0
   25.0039   22.5545   19.2703 C   0  0  0  0  0  0  0  0  0  0  0  0
   24.6235   23.6608   20.0188 C   0  0  0  0  0  0  0  0  0  0  0  0
   25.3147   23.9619   21.1983 C   0  0  0  0  0  0  0  0  0  0  0  0
   24.3358   22.2746   18.1126 O   0  0  0  0  0  0  0  0  0  0  0  0
   26.3808   20.6749   18.8834 O   0  0  0  0  0  0  0  0  0  0  0  0
   24.7640   21.4654   17.7678 H   0  0  0  0  0  0  0  0  0  0  0  0
   27.1299   20.2051   19.2895 H   0  0  0  0  0  0  0  0  0  0  0  0
 18 19  2  0  0  0
 19 20  1  0  0  0
 20 21  2  0  0  0
 21 22  1  0  0  0
 22 23  2  0  0  0
 18 23  1  0  0  0
 23  1  1  0  0  0
  1  2  2  0  0  0
  2  3  1  0  0  0
  3  4  2  0  0  0
  3  5  1  0  0  0
  5  6  2  0  0  0
  6  7  1  0  0  0
  7  8  2  0  0  0
  8  9  1  0  0  0
  9 10  2  0  0  0
  5 10  1  0  0  0
 10 11  1  0  0  0
  1 11  1  0  0  0
  8 12  1  0  0  0
  6 13  1  0  0  0
  2 14  1  0  0  0
 21 24  1  0  0  0
 20 25  1  0  0  0
 12 15  1  0  0  0
 13 16  1  0  0  0
 14 17  1  0  0  0
 24 26  1  0  0  0
 25 27  1  0  0  0
M  END
> <minimizedAffinity>
-6.01393

$$$$
Quercetin


 27 29  0  0  0  0  0  0  0  0999 V2000
   25.0500   24.4885   22.1424 C   0  0  0  0  0  0  0  0  0  0  0  0
   24.8181   25.6837   21.5623 C   0  0  0  0  0  0  0  0  0  0  0  0
   24.0864   26.7096   22.3536 C   0  0  0  0  0  0  0  0  0  0  0  0
   23.8396   27.8350   21.9262 O   0  0  0  0  0  0  0  0  0  0  0  0
   23.6540   26.3323   23.7041 C   0  0  0  0  0  0  0  0  0  0  0  0
   22.9670   27.2299   24.5307 C   0  0  0  0  0  0  0  0  0  0  0  0
   22.5648   26.8454   25.8073 C   0  0  0  0  0  0  0  0  0  0  0  0
   22.8528   25.5572   26.2484 C   0  0  0  0  0  0  0  0  0  0  0  0
   23.5360   24.6559   25.4359 C   0  0  0  0  0  0  0  0  0  0  0  0
   23.9400   25.0487   24.1597 C   0  0  0  0  0  0  0  0  0  0  0  0
   24.6198   24.1254   23.4079 O   0  0  0  0  0  0  0  0  0  0  0  0
   22.4791   25.1344   27.4897 O   0  0  0  0  0  0  0  0  0  0  0  0
   22.6572   28.5081   24.1490 O   0  0  0  0  0  0  0  0  0  0  0  0
   25.2101   26.0283   20.2805 O   0  0  0  0  0  0  0  0  0  0  0  0
   22.0160   25.8602   27.9419 H   0  0  0  0  0  0  0  0  0  0  0  0
   22.9919   28.6428   23.2318 H   0  0  0  0  0  0  0  0  0  0  0  0
   25.5145   25.2316   19.8146 H   0  0  0  0  0  0  0  0  0  0  0  0
   25.1537   22.5139   20.6124 C   0  0  0  0  0  0  0  0  0  0  0  0
   25.8587   21.4753   19.9957 C   0  0  0  0  0  0  0  0  0  0  0  0
   27.2215   21.3528   20.2312 C   0  0  0  0  0  0  0  0  0  0  0  0
   27.8764   22.2591   21.0621 C   0  0  0  0  0  0  0  0  0  0  0  0
   27.1854   23.2937   21.6793 C   0  0  0  0  0  0  0  0  0  0  0  0
   25.8075   23.4210   21.4675 C   0  0  0  0  0  0  0  0  0  0  0  0
   29.2176   22.1308   21.2847 O   0  0  0  0  0  0  0  0  0  0  0  0
   27.9655   20.3535   19.6695 O   0  0  0  0  0  0  0  0  0  0  0  0
   29.4847   21.3542   20.7531 H   0  0  0  0  0  0  0  0  0  0  0  0
   27.3774   19.8014   19.1254 H   0  0  0  0  0  0  0  0  0  0  0  0
 18 19  2  0  0  0
 19 20  1  0  0  0
 20 21  2  0  0  0
 21 22  1  0  0  0
 22 23  2  0  0  0
 18 23  1  0  0  0
 23  1  1  0  0  0
  1  2  2  0  0  0
  2  3  1  0  0  0
  3  4  2  0  0  0
  3  5  1  0  0  0
  5  6  2  0  0  0
  6  7  1  0  0  0
  7  8  2  0  0  0
  8  9  1  0  0  0
  9 10  2  0  0  0
  5 10  1  0  0  0
 10 11  1  0  0  0
  1 11  1  0  0  0
  8 12  1  0  0  0
  6 13  1  0  0  0
  2 14  1  0  0  0
 21 24  1  0  0  0
 20 25  1  0  0  0
 12 15  1  0  0  0
 13 16  1  0  0  0
 14 17  1  0  0  0
 24 26  1  0  0  0
 25 27  1  0  0  0
M  END
> <minimizedAffinity>
-5.98201

$$$$
Quercetin


 27 29  0  0  0  0  0  0  0  0999 V2000
   24.9402   25.2437   22.0996 C   0  0  0  0  0  0  0  0  0  0  0  0
   23.7366   25.3656   22.6958 C   0  0  0  0  0  0  0  0  0  0  0  0
   23.4466   26.6310   23.4228 C   0  0  0  0  0  0  0  0  0  0  0  0
   22.3759   26.8507   23.9845 O   0  0  0  0  0  0  0  0  0  0  0  0
   24.5061   27.6458   23.4518 C   0  0  0  0  0  0  0  0  0  0  0  0
   24.3272   28.8730   24.1020 C   0  0  0  0  0  0  0  0  0  0  0  0
   25.3503   29.8178   24.1174 C   0  0  0  0  0  0  0  0  0  0  0  0
   26.5523   29.5242   23.4802 C   0  0  0  0  0  0  0  0  0  0  0  0
   26.7418   28.3077   22.8297 C   0  0  0  0  0  0  0  0  0  0  0  0
   25.7114   27.3673   22.8141 C   0  0  0  0  0  0  0  0  0  0  0  0
   25.9482   26.1923   22.1485 O   0  0  0  0  0  0  0  0  0  0  0  0
   27.5831   30.4167   23.4687 O   0  0  0  0  0  0  0  0  0  0  0  0
   23.1671   29.2147   24.7445 O   0  0  0  0  0  0  0  0  0  0  0  0
   22.7478   24.3974   22.6832 O   0  0  0  0  0  0  0  0  0  0  0  0
   27.3130   31.2141   23.9555 H   0  0  0  0  0  0  0  0  0  0  0  0
   22.5380   28.4607   24.6610 H   0  0  0  0  0  0  0  0  0  0  0  0
   23.1171   23.5682   22.3362 H   0  0  0  0  0  0  0  0  0  0  0  0
   24.4338   23.5431   20.3383 C   0  0  0  0  0  0  0  0  0  0  0  0
   24.7619   22.3937   19.6121 C   0  0  0  0  0  0  0  0  0  0  0  0
   25.9742   21.7635   19.8591 C   0  0  0  0  0  0  0  0  0  0  0  0
   26.8535   22.2769   20.8097 C   0  0  0  0  0  0  0  0  0  0  0  0
   26.5369   23.4174   21.5363 C   0  0  0  0  0  0  0  0  0  0  0  0
   25.3108   24.0550   21.3131 C   0  0  0  0  0  0  0  0  0  0  0  0
   28.0444   21.6506   21.0427 O   0  0  0  0  0  0  0  0  0  0  0  0
   26.3491   20.6305   19.1931 O   0  0  0  0  0  0  0  0  0  0  0  0
   28.0518   20.8925   20.4243 H   0  0  0  0  0  0  0  0  0  0  0  0
   25.6395   20.3901   18.5724 H   0  0  0  0  0  0  0  0  0  0  0  0
 18 19  2  0  0  0
 19 20  1  0  0  0
 20 21  2  0  0  0
 21 22  1  0  0  0
 22 23  2  0  0  0
 18 23  1  0  0  0
 23  1  1  0  0  0
  1  2  2  0  0  0
  2  3  1  0  0  0
  3  4  2  0  0  0
  3  5  1  0  0  0
  5  6  2  0  0  0
  6  7  1  0  0  0
  7  8  2  0  0  0
  8  9  1  0  0  0
  9 10  2  0  0  0
  5 10  1  0  0  0
 10 11  1  0  0  0
  1 11  1  0  0  0
  8 12  1  0  0  0
  6 13  1  0  0  0
  2 14  1  0  0  0
 21 24  1  0  0  0
 20 25  1  0  0  0
 12 15  1  0  0  0
 13 16  1  0  0  0
 14 17  1  0  0  0
 24 26  1  0  0  0
 25 27  1  0  0  0
M  END
> <minimizedAffinity>
-5.88141

$$$$
