Quercetin


 27 29  0  0  0  0  0  0  0  0999 V2000
   -5.3240   20.2020   13.4511 C   0  0  0  0  0  0  0  0  0  0  0  0
   -4.6196   20.8725   12.5166 C   0  0  0  0  0  0  0  0  0  0  0  0
   -4.9187   20.5907   11.0865 C   0  0  0  0  0  0  0  0  0  0  0  0
   -4.3481   21.1588   10.1582 O   0  0  0  0  0  0  0  0  0  0  0  0
   -5.9489   19.5851   10.8023 C   0  0  0  0  0  0  0  0  0  0  0  0
   -6.3087   19.2560    9.4896 C   0  0  0  0  0  0  0  0  0  0  0  0
   -7.2875   18.2955    9.2473 C   0  0  0  0  0  0  0  0  0  0  0  0
   -7.9003   17.6663   10.3269 C   0  0  0  0  0  0  0  0  0  0  0  0
   -7.5515   17.9855   11.6367 C   0  0  0  0  0  0  0  0  0  0  0  0
   -6.5734   18.9519   11.8728 C   0  0  0  0  0  0  0  0  0  0  0  0
   -6.2786   19.2355   13.1813 O   0  0  0  0  0  0  0  0  0  0  0  0
   -8.8633   16.7192   10.1402 O   0  0  0  0  0  0  0  0  0  0  0  0
   -5.7395   19.8425    8.3908 O   0  0  0  0  0  0  0  0  0  0  0  0
   -3.6344   21.8054   12.7893 O   0  0  0  0  0  0  0  0  0  0  0  0
   -9.0041   16.5991    9.1854 H   0  0  0  0  0  0  0  0  0  0  0  0
   -5.0670   20.4911    8.7044 H   0  0  0  0  0  0  0  0  0  0  0  0
   -3.4144   21.7704   13.7352 H   0  0  0  0  0  0  0  0  0  0  0  0
   -4.3895   19.5446   15.6748 C   0  0  0  0  0  0  0  0  0  0  0  0
   -4.2423   19.7439   17.0513 C   0  0  0  0  0  0  0  0  0  0  0  0
   -4.8447   20.8472   17.6409 C   0  0  0  0  0  0  0  0  0  0  0  0
   -5.5758   21.7466   16.8682 C   0  0  0  0  0  0  0  0  0  0  0  0
   -5.7281   21.5576   15.5008 C   0  0  0  0  0  0  0  0  0  0  0  0
   -5.1428   20.4406   14.8930 C   0  0  0  0  0  0  0  0  0  0  0  0
   -6.1619   22.8298   17.4580 O   0  0  0  0  0  0  0  0  0  0  0  0
   -4.7498   21.0924   18.9820 O   0  0  0  0  0  0  0  0  0  0  0  0
   -5.9187   22.7603   18.4031 H   0  0  0  0  0  0  0  0  0  0  0  0
   -4.2199   20.3840   19.3870 H   0  0  0  0  0  0  0  0  0  0  0  0
 18 19  2  0  0  0
 19 20  1  0  0  0
 20 21  2  0  0  0
 21 22  1  0  0  0
 22 23  2  0  0  0
 18 23  1  0  0  0
 23  1  1  0  0  0
  1  2  2  0  0  0
  2  3  1  0  0  0
  3  4  2  0  0  0
  3  5  1  0  0  0
  5  6  2  0  0  0
  6  7  1  0  0  0
  7  8  2  0  0  0
  8  9  1  0  0  0
  9 10  2  0  0  0
  5 10  1  0  0  0
 10 11  1  0  0  0
  1 11  1  0  0  0
  8 12  1  0  0  0
  6 13  1  0  0  0
  2 14  1  0  0  0
 21 24  1  0  0  0
 20 25  1  0  0  0
 12 15  1  0  0  0
 13 16  1  0  0  0
 14 17  1  0  0  0
 24 26  1  0  0  0
 25 27  1  0  0  0
M  END
> <minimizedAffinity>
-6.74626

$$$$
Quercetin


 27 29  0  0  0  0  0  0  0  0999 V2000
   -5.0314   20.8687   13.2908 C   0  0  0  0  0  0  0  0  0  0  0  0
   -5.9571   20.1741   12.5983 C   0  0  0  0  0  0  0  0  0  0  0  0
   -5.8462   20.1568   11.1146 C   0  0  0  0  0  0  0  0  0  0  0  0
   -6.6259   19.5409   10.3916 O   0  0  0  0  0  0  0  0  0  0  0  0
   -4.7435   20.9173   10.5155 C   0  0  0  0  0  0  0  0  0  0  0  0
   -4.5485   20.9559    9.1294 C   0  0  0  0  0  0  0  0  0  0  0  0
   -3.4958   21.6882    8.5862 C   0  0  0  0  0  0  0  0  0  0  0  0
   -2.6430   22.3823    9.4394 C   0  0  0  0  0  0  0  0  0  0  0  0
   -2.8262   22.3509   10.8195 C   0  0  0  0  0  0  0  0  0  0  0  0
   -3.8800   21.6118   11.3576 C   0  0  0  0  0  0  0  0  0  0  0  0
   -4.0057   21.6061   12.7228 O   0  0  0  0  0  0  0  0  0  0  0  0
   -1.5990   23.1135    8.9550 O   0  0  0  0  0  0  0  0  0  0  0  0
   -5.3558   20.2931    8.2438 O   0  0  0  0  0  0  0  0  0  0  0  0
   -7.0076   19.4749   13.1666 O   0  0  0  0  0  0  0  0  0  0  0  0
   -1.5919   23.0454    7.9849 H   0  0  0  0  0  0  0  0  0  0  0  0
   -6.0548   19.8259    8.7580 H   0  0  0  0  0  0  0  0  0  0  0  0
   -7.0721   19.7052   14.1085 H   0  0  0  0  0  0  0  0  0  0  0  0
   -4.4895   19.8366   15.5025 C   0  0  0  0  0  0  0  0  0  0  0  0
   -4.5066   19.8522   16.9009 C   0  0  0  0  0  0  0  0  0  0  0  0
   -5.0481   20.9500   17.5562 C   0  0  0  0  0  0  0  0  0  0  0  0
   -5.5568   22.0235   16.8286 C   0  0  0  0  0  0  0  0  0  0  0  0
   -5.5446   22.0176   15.4399 C   0  0  0  0  0  0  0  0  0  0  0  0
   -5.0192   20.9107   14.7628 C   0  0  0  0  0  0  0  0  0  0  0  0
   -6.0846   23.0993   17.4834 O   0  0  0  0  0  0  0  0  0  0  0  0
   -5.1063   21.0220   18.9197 O   0  0  0  0  0  0  0  0  0  0  0  0
   -5.9808   22.8879   18.4330 H   0  0  0  0  0  0  0  0  0  0  0  0
   -4.7235   20.2063   19.2870 H   0  0  0  0  0  0  0  0  0  0  0  0
 18 19  2  0  0  0
 19 20  1  0  0  0
 20 21  2  0  0  0
 21 22  1  0  0  0
 22 23  2  0  0  0
 18 23  1  0  0  0
 23  1  1  0  0  0
  1  2  2  0  0  0
  2  3  1  0  0  0
  3  4  2  0  0  0
  3  5  1  0  0  0
  5  6  2  0  0  0
  6  7  1  0  0  0
  7  8  2  0  0  0
  8  9  1  0  0  0
  9 10  2  0  0  0
  5 10  1  0  0  0
 10 11  1  0  0  0
  1 11  1  0  0  0
  8 12  1  0  0  0
  6 13  1  0  0  0
  2 14  1  0  0  0
 21 24  1  0  0  0
 20 25  1  0  0  0
 12 15  1  0  0  0
 13 16  1  0  0  0
 14 17  1  0  0  0
 24 26  1  0  0  0
 25 27  1  0  0  0
M  END
> <minimizedAffinity>
-6.52570

$$$$
Quercetin


 27 29  0  0  0  0  0  0  0  0999 V2000
   -5.1439   20.4673   12.3446 C   0  0  0  0  0  0  0  0  0  0  0  0
   -6.1638   19.6751   11.9556 C   0  0  0  0  0  0  0  0  0  0  0  0
   -6.3964   19.5090   10.4954 C   0  0  0  0  0  0  0  0  0  0  0  0
   -7.2858   18.7967   10.0354 O   0  0  0  0  0  0  0  0  0  0  0  0
   -5.5055   20.2399    9.5869 C   0  0  0  0  0  0  0  0  0  0  0  0
   -5.6371   20.1422    8.1962 C   0  0  0  0  0  0  0  0  0  0  0  0
   -4.7804   20.8491    7.3561 C   0  0  0  0  0  0  0  0  0  0  0  0
   -3.7944   21.6549    7.9178 C   0  0  0  0  0  0  0  0  0  0  0  0
   -3.6531   21.7596    9.2992 C   0  0  0  0  0  0  0  0  0  0  0  0
   -4.5117   21.0453   10.1352 C   0  0  0  0  0  0  0  0  0  0  0  0
   -4.3194   21.1759   11.4864 O   0  0  0  0  0  0  0  0  0  0  0  0
   -2.9326   22.3665    7.1367 O   0  0  0  0  0  0  0  0  0  0  0  0
   -6.5881   19.3656    7.5897 O   0  0  0  0  0  0  0  0  0  0  0  0
   -7.0145   19.0038   12.8164 O   0  0  0  0  0  0  0  0  0  0  0  0
   -3.1451   22.1993    6.2025 H   0  0  0  0  0  0  0  0  0  0  0  0
   -7.1227   18.9309    8.2944 H   0  0  0  0  0  0  0  0  0  0  0  0
   -6.8733   19.3274   13.7218 H   0  0  0  0  0  0  0  0  0  0  0  0
   -4.6112   19.5516   14.6091 C   0  0  0  0  0  0  0  0  0  0  0  0
   -4.3159   19.7265   15.9650 C   0  0  0  0  0  0  0  0  0  0  0  0
   -4.1977   21.0151   16.4683 C   0  0  0  0  0  0  0  0  0  0  0  0
   -4.3613   22.1158   15.6303 C   0  0  0  0  0  0  0  0  0  0  0  0
   -4.6549   21.9528   14.2827 C   0  0  0  0  0  0  0  0  0  0  0  0
   -4.7957   20.6608   13.7624 C   0  0  0  0  0  0  0  0  0  0  0  0
   -4.2402   23.3787   16.1354 O   0  0  0  0  0  0  0  0  0  0  0  0
   -3.9230   21.2546   17.7855 O   0  0  0  0  0  0  0  0  0  0  0  0
   -4.0296   23.2489   17.0819 H   0  0  0  0  0  0  0  0  0  0  0  0
   -3.8423   20.3996   18.2428 H   0  0  0  0  0  0  0  0  0  0  0  0
 18 19  2  0  0  0
 19 20  1  0  0  0
 20 21  2  0  0  0
 21 22  1  0  0  0
 22 23  2  0  0  0
 18 23  1  0  0  0
 23  1  1  0  0  0
  1  2  2  0  0  0
  2  3  1  0  0  0
  3  4  2  0  0  0
  3  5  1  0  0  0
  5  6  2  0  0  0
  6  7  1  0  0  0
  7  8  2  0  0  0
  8  9  1  0  0  0
  9 10  2  0  0  0
  5 10  1  0  0  0
 10 11  1  0  0  0
  1 11  1  0  0  0
  8 12  1  0  0  0
  6 13  1  0  0  0
  2 14  1  0  0  0
 21 24  1  0  0  0
 20 25  1  0  0  0
 12 15  1  0  0  0
 13 16  1  0  0  0
 14 17  1  0  0  0
 24 26  1  0  0  0
 25 27  1  0  0  0
M  END
> <minimizedAffinity>
-6.15175

$$$$
Quercetin


 27 29  0  0  0  0  0  0  0  0999 V2000
   -5.8794   18.9418   12.4420 C   0  0  0  0  0  0  0  0  0  0  0  0
   -5.6940   20.0006   11.6274 C   0  0  0  0  0  0  0  0  0  0  0  0
   -5.0921   21.2294   12.2116 C   0  0  0  0  0  0  0  0  0  0  0  0
   -4.8646   22.2421   11.5536 O   0  0  0  0  0  0  0  0  0  0  0  0
   -4.7634   21.2008   13.6414 C   0  0  0  0  0  0  0  0  0  0  0  0
   -4.1855   22.3035   14.2824 C   0  0  0  0  0  0  0  0  0  0  0  0
   -3.8863   22.2513   15.6415 C   0  0  0  0  0  0  0  0  0  0  0  0
   -4.1718   21.0899   16.3532 C   0  0  0  0  0  0  0  0  0  0  0  0
   -4.7457   19.9865   15.7268 C   0  0  0  0  0  0  0  0  0  0  0  0
   -5.0389   20.0437   14.3641 C   0  0  0  0  0  0  0  0  0  0  0  0
   -5.5914   18.9245   13.7967 O   0  0  0  0  0  0  0  0  0  0  0  0
   -3.8978   20.9912   17.6853 O   0  0  0  0  0  0  0  0  0  0  0  0
   -3.8836   23.4704   13.6323 O   0  0  0  0  0  0  0  0  0  0  0  0
   -6.0245   20.0301   10.2837 O   0  0  0  0  0  0  0  0  0  0  0  0
   -3.5029   21.8272   17.9870 H   0  0  0  0  0  0  0  0  0  0  0  0
   -4.1500   23.3722   12.6885 H   0  0  0  0  0  0  0  0  0  0  0  0
   -6.5602   19.2482   10.0693 H   0  0  0  0  0  0  0  0  0  0  0  0
   -7.8016   17.3975   12.0284 C   0  0  0  0  0  0  0  0  0  0  0  0
   -8.3199   16.1704   11.6024 C   0  0  0  0  0  0  0  0  0  0  0  0
   -7.4527   15.2117   11.0959 C   0  0  0  0  0  0  0  0  0  0  0  0
   -6.0878   15.4752   11.0050 C   0  0  0  0  0  0  0  0  0  0  0  0
   -5.5632   16.6904   11.4255 C   0  0  0  0  0  0  0  0  0  0  0  0
   -6.4208   17.6614   11.9558 C   0  0  0  0  0  0  0  0  0  0  0  0
   -5.2442   14.5260   10.5027 O   0  0  0  0  0  0  0  0  0  0  0  0
   -7.8932   13.9886   10.6743 O   0  0  0  0  0  0  0  0  0  0  0  0
   -5.8256   13.7741   10.2710 H   0  0  0  0  0  0  0  0  0  0  0  0
   -8.8568   13.9481   10.8029 H   0  0  0  0  0  0  0  0  0  0  0  0
 18 19  2  0  0  0
 19 20  1  0  0  0
 20 21  2  0  0  0
 21 22  1  0  0  0
 22 23  2  0  0  0
 18 23  1  0  0  0
 23  1  1  0  0  0
  1  2  2  0  0  0
  2  3  1  0  0  0
  3  4  2  0  0  0
  3  5  1  0  0  0
  5  6  2  0  0  0
  6  7  1  0  0  0
  7  8  2  0  0  0
  8  9  1  0  0  0
  9 10  2  0  0  0
  5 10  1  0  0  0
 10 11  1  0  0  0
  1 11  1  0  0  0
  8 12  1  0  0  0
  6 13  1  0  0  0
  2 14  1  0  0  0
 21 24  1  0  0  0
 20 25  1  0  0  0
 12 15  1  0  0  0
 13 16  1  0  0  0
 14 17  1  0  0  0
 24 26  1  0  0  0
 25 27  1  0  0  0
M  END
> <minimizedAffinity>
-6.09112

$$$$
Quercetin


 27 29  0  0  0  0  0  0  0  0999 V2000
   -3.8915   21.9010   12.5531 C   0  0  0  0  0  0  0  0  0  0  0  0
   -4.2363   21.1453   13.6157 C   0  0  0  0  0  0  0  0  0  0  0  0
   -5.0878   19.9500   13.3709 C   0  0  0  0  0  0  0  0  0  0  0  0
   -5.4432   19.1860   14.2654 O   0  0  0  0  0  0  0  0  0  0  0  0
   -5.5053   19.6958   11.9873 C   0  0  0  0  0  0  0  0  0  0  0  0
   -6.2995   18.5921   11.6529 C   0  0  0  0  0  0  0  0  0  0  0  0
   -6.6846   18.3756   10.3322 C   0  0  0  0  0  0  0  0  0  0  0  0
   -6.2714   19.2721    9.3511 C   0  0  0  0  0  0  0  0  0  0  0  0
   -5.4808   20.3729    9.6711 C   0  0  0  0  0  0  0  0  0  0  0  0
   -5.0947   20.5816   10.9954 C   0  0  0  0  0  0  0  0  0  0  0  0
   -4.3064   21.6738   11.2514 O   0  0  0  0  0  0  0  0  0  0  0  0
   -6.6234   19.1028    8.0447 O   0  0  0  0  0  0  0  0  0  0  0  0
   -6.7345   17.6790   12.5761 O   0  0  0  0  0  0  0  0  0  0  0  0
   -3.8570   21.4004   14.9220 O   0  0  0  0  0  0  0  0  0  0  0  0
   -7.1695   18.3017    7.9683 H   0  0  0  0  0  0  0  0  0  0  0  0
   -6.3975   17.9542   13.4604 H   0  0  0  0  0  0  0  0  0  0  0  0
   -3.4610   22.2864   14.9725 H   0  0  0  0  0  0  0  0  0  0  0  0
   -1.6798   23.0199   12.2258 C   0  0  0  0  0  0  0  0  0  0  0  0
   -0.8273   24.1190   12.3719 C   0  0  0  0  0  0  0  0  0  0  0  0
   -1.3153   25.2768   12.9629 C   0  0  0  0  0  0  0  0  0  0  0  0
   -2.6383   25.3432   13.3937 C   0  0  0  0  0  0  0  0  0  0  0  0
   -3.4928   24.2574   13.2535 C   0  0  0  0  0  0  0  0  0  0  0  0
   -3.0122   23.0759   12.6765 C   0  0  0  0  0  0  0  0  0  0  0  0
   -3.1085   26.4879   13.9712 O   0  0  0  0  0  0  0  0  0  0  0  0
   -0.5311   26.3810   13.1462 O   0  0  0  0  0  0  0  0  0  0  0  0
   -2.3486   27.1038   13.9573 H   0  0  0  0  0  0  0  0  0  0  0  0
    0.3590   26.1856   12.8053 H   0  0  0  0  0  0  0  0  0  0  0  0
 18 19  2  0  0  0
 19 20  1  0  0  0
 20 21  2  0  0  0
 21 22  1  0  0  0
 22 23  2  0  0  0
 18 23  1  0  0  0
 23  1  1  0  0  0
  1  2  2  0  0  0
  2  3  1  0  0  0
  3  4  2  0  0  0
  3  5  1  0  0  0
  5  6  2  0  0  0
  6  7  1  0  0  0
  7  8  2  0  0  0
  8  9  1  0  0  0
  9 10  2  0  0  0
  5 10  1  0  0  0
 10 11  1  0  0  0
  1 11  1  0  0  0
  8 12  1  0  0  0
  6 13  1  0  0  0
  2 14  1  0  0  0
 21 24  1  0  0  0
 20 25  1  0  0  0
 12 15  1  0  0  0
 13 16  1  0  0  0
 14 17  1  0  0  0
 24 26  1  0  0  0
 25 27  1  0  0  0
M  END
> <minimizedAffinity>
-5.66517

$$$$
