Quercetin


 27 29  0  0  0  0  0  0  0  0999 V2000
    5.1967   27.8022   25.5590 C   0  0  0  0  0  0  0  0  0  0  0  0
    4.6724   28.3217   24.4302 C   0  0  0  0  0  0  0  0  0  0  0  0
    5.0339   27.6802   23.1373 C   0  0  0  0  0  0  0  0  0  0  0  0
    4.5978   28.0635   22.0542 O   0  0  0  0  0  0  0  0  0  0  0  0
    5.9538   26.5382   23.1892 C   0  0  0  0  0  0  0  0  0  0  0  0
    6.3473   25.8612   22.0283 C   0  0  0  0  0  0  0  0  0  0  0  0
    7.2242   24.7821   22.1050 C   0  0  0  0  0  0  0  0  0  0  0  0
    7.7052   24.3881   23.3502 C   0  0  0  0  0  0  0  0  0  0  0  0
    7.3206   25.0528   24.5118 C   0  0  0  0  0  0  0  0  0  0  0  0
    6.4383   26.1303   24.4285 C   0  0  0  0  0  0  0  0  0  0  0  0
    6.0840   26.7397   25.6045 O   0  0  0  0  0  0  0  0  0  0  0  0
    8.5660   23.3382   23.4761 O   0  0  0  0  0  0  0  0  0  0  0  0
    5.9061   26.2053   20.7783 O   0  0  0  0  0  0  0  0  0  0  0  0
    3.8211   29.4119   24.3842 O   0  0  0  0  0  0  0  0  0  0  0  0
    8.7456   22.9723   22.5931 H   0  0  0  0  0  0  0  0  0  0  0  0
    5.3034   26.9798   20.8694 H   0  0  0  0  0  0  0  0  0  0  0  0
    3.8038   29.8406   25.2561 H   0  0  0  0  0  0  0  0  0  0  0  0
    4.1410   27.5435   27.8106 C   0  0  0  0  0  0  0  0  0  0  0  0
    3.7911   28.0486   29.0670 C   0  0  0  0  0  0  0  0  0  0  0  0
    4.1759   29.3389   29.4058 C   0  0  0  0  0  0  0  0  0  0  0  0
    4.9089   30.1130   28.5092 C   0  0  0  0  0  0  0  0  0  0  0  0
    5.2611   29.6208   27.2592 C   0  0  0  0  0  0  0  0  0  0  0  0
    4.8656   28.3286   26.8940 C   0  0  0  0  0  0  0  0  0  0  0  0
    5.2845   31.3799   28.8539 O   0  0  0  0  0  0  0  0  0  0  0  0
    3.8554   29.8959   30.6119 O   0  0  0  0  0  0  0  0  0  0  0  0
    4.9390   31.5036   29.7607 H   0  0  0  0  0  0  0  0  0  0  0  0
    3.3432   29.2461   31.1239 H   0  0  0  0  0  0  0  0  0  0  0  0
 18 19  2  0  0  0
 19 20  1  0  0  0
 20 21  2  0  0  0
 21 22  1  0  0  0
 22 23  2  0  0  0
 18 23  1  0  0  0
 23  1  1  0  0  0
  1  2  2  0  0  0
  2  3  1  0  0  0
  3  4  2  0  0  0
  3  5  1  0  0  0
  5  6  2  0  0  0
  6  7  1  0  0  0
  7  8  2  0  0  0
  8  9  1  0  0  0
  9 10  2  0  0  0
  5 10  1  0  0  0
 10 11  1  0  0  0
  1 11  1  0  0  0
  8 12  1  0  0  0
  6 13  1  0  0  0
  2 14  1  0  0  0
 21 24  1  0  0  0
 20 25  1  0  0  0
 12 15  1  0  0  0
 13 16  1  0  0  0
 14 17  1  0  0  0
 24 26  1  0  0  0
 25 27  1  0  0  0
M  END
> <minimizedAffinity>
-8.88332

$$$$
Quercetin


 27 29  0  0  0  0  0  0  0  0999 V2000
    5.3201   27.9560   25.7488 C   0  0  0  0  0  0  0  0  0  0  0  0
    4.6244   28.4750   24.7164 C   0  0  0  0  0  0  0  0  0  0  0  0
    4.7855   27.8392   23.3809 C   0  0  0  0  0  0  0  0  0  0  0  0
    4.1848   28.2224   22.3796 O   0  0  0  0  0  0  0  0  0  0  0  0
    5.7092   26.7030   23.2859 C   0  0  0  0  0  0  0  0  0  0  0  0
    5.9225   26.0316   22.0757 C   0  0  0  0  0  0  0  0  0  0  0  0
    6.8072   24.9581   22.0120 C   0  0  0  0  0  0  0  0  0  0  0  0
    7.4774   24.5640   23.1664 C   0  0  0  0  0  0  0  0  0  0  0  0
    7.2730   25.2232   24.3759 C   0  0  0  0  0  0  0  0  0  0  0  0
    6.3820   26.2952   24.4339 C   0  0  0  0  0  0  0  0  0  0  0  0
    6.2101   26.8992   25.6526 O   0  0  0  0  0  0  0  0  0  0  0  0
    8.3536   23.5194   23.1540 O   0  0  0  0  0  0  0  0  0  0  0  0
    5.2912   26.3761   20.9102 O   0  0  0  0  0  0  0  0  0  0  0  0
    3.7697   29.5598   24.8065 O   0  0  0  0  0  0  0  0  0  0  0  0
    8.3967   23.1569   22.2525 H   0  0  0  0  0  0  0  0  0  0  0  0
    4.7051   27.1463   21.0962 H   0  0  0  0  0  0  0  0  0  0  0  0
    3.8849   29.9861   25.6721 H   0  0  0  0  0  0  0  0  0  0  0  0
    5.9853   29.5625   27.5452 C   0  0  0  0  0  0  0  0  0  0  0  0
    5.9003   30.0404   28.8569 C   0  0  0  0  0  0  0  0  0  0  0  0
    5.0171   29.4333   29.7396 C   0  0  0  0  0  0  0  0  0  0  0  0
    4.2210   28.3704   29.3189 C   0  0  0  0  0  0  0  0  0  0  0  0
    4.2980   27.8884   28.0187 C   0  0  0  0  0  0  0  0  0  0  0  0
    5.1963   28.4768   27.1207 C   0  0  0  0  0  0  0  0  0  0  0  0
    3.3538   27.7824   30.1948 O   0  0  0  0  0  0  0  0  0  0  0  0
    4.8950   29.8440   31.0373 O   0  0  0  0  0  0  0  0  0  0  0  0
    3.4655   28.2820   31.0284 H   0  0  0  0  0  0  0  0  0  0  0  0
    5.5113   30.5822   31.1852 H   0  0  0  0  0  0  0  0  0  0  0  0
 18 19  2  0  0  0
 19 20  1  0  0  0
 20 21  2  0  0  0
 21 22  1  0  0  0
 22 23  2  0  0  0
 18 23  1  0  0  0
 23  1  1  0  0  0
  1  2  2  0  0  0
  2  3  1  0  0  0
  3  4  2  0  0  0
  3  5  1  0  0  0
  5  6  2  0  0  0
  6  7  1  0  0  0
  7  8  2  0  0  0
  8  9  1  0  0  0
  9 10  2  0  0  0
  5 10  1  0  0  0
 10 11  1  0  0  0
  1 11  1  0  0  0
  8 12  1  0  0  0
  6 13  1  0  0  0
  2 14  1  0  0  0
 21 24  1  0  0  0
 20 25  1  0  0  0
 12 15  1  0  0  0
 13 16  1  0  0  0
 14 17  1  0  0  0
 24 26  1  0  0  0
 25 27  1  0  0  0
M  END
> <minimizedAffinity>
-8.79369

$$$$
Quercetin


 27 29  0  0  0  0  0  0  0  0999 V2000
    5.4205   27.3328   24.5788 C   0  0  0  0  0  0  0  0  0  0  0  0
    5.2801   27.2334   23.2412 C   0  0  0  0  0  0  0  0  0  0  0  0
    6.0416   26.1644   22.5403 C   0  0  0  0  0  0  0  0  0  0  0  0
    5.9713   25.9766   21.3279 O   0  0  0  0  0  0  0  0  0  0  0  0
    6.9067   25.3091   23.3609 C   0  0  0  0  0  0  0  0  0  0  0  0
    7.6567   24.2699   22.7967 C   0  0  0  0  0  0  0  0  0  0  0  0
    8.4726   23.4747   23.5977 C   0  0  0  0  0  0  0  0  0  0  0  0
    8.5337   23.7290   24.9646 C   0  0  0  0  0  0  0  0  0  0  0  0
    7.7921   24.7591   25.5374 C   0  0  0  0  0  0  0  0  0  0  0  0
    6.9732   25.5492   24.7302 C   0  0  0  0  0  0  0  0  0  0  0  0
    6.2561   26.5406   25.3486 O   0  0  0  0  0  0  0  0  0  0  0  0
    9.3184   22.9784   25.7893 O   0  0  0  0  0  0  0  0  0  0  0  0
    7.6352   23.9751   21.4596 O   0  0  0  0  0  0  0  0  0  0  0  0
    4.4786   28.0555   22.4684 O   0  0  0  0  0  0  0  0  0  0  0  0
    9.7741   22.3024   25.2591 H   0  0  0  0  0  0  0  0  0  0  0  0
    7.0282   24.6123   21.0159 H   0  0  0  0  0  0  0  0  0  0  0  0
    4.1796   28.8075   23.0065 H   0  0  0  0  0  0  0  0  0  0  0  0
    4.2059   27.9936   26.6618 C   0  0  0  0  0  0  0  0  0  0  0  0
    3.4664   28.9143   27.4112 C   0  0  0  0  0  0  0  0  0  0  0  0
    3.2056   30.1671   26.8726 C   0  0  0  0  0  0  0  0  0  0  0  0
    3.6838   30.5030   25.6081 C   0  0  0  0  0  0  0  0  0  0  0  0
    4.4188   29.5959   24.8559 C   0  0  0  0  0  0  0  0  0  0  0  0
    4.6754   28.3218   25.3759 C   0  0  0  0  0  0  0  0  0  0  0  0
    3.4237   31.7391   25.0891 O   0  0  0  0  0  0  0  0  0  0  0  0
    2.4790   31.1075   27.5475 O   0  0  0  0  0  0  0  0  0  0  0  0
    2.9091   32.1971   25.7837 H   0  0  0  0  0  0  0  0  0  0  0  0
    2.2103   30.7316   28.4038 H   0  0  0  0  0  0  0  0  0  0  0  0
 18 19  2  0  0  0
 19 20  1  0  0  0
 20 21  2  0  0  0
 21 22  1  0  0  0
 22 23  2  0  0  0
 18 23  1  0  0  0
 23  1  1  0  0  0
  1  2  2  0  0  0
  2  3  1  0  0  0
  3  4  2  0  0  0
  3  5  1  0  0  0
  5  6  2  0  0  0
  6  7  1  0  0  0
  7  8  2  0  0  0
  8  9  1  0  0  0
  9 10  2  0  0  0
  5 10  1  0  0  0
 10 11  1  0  0  0
  1 11  1  0  0  0
  8 12  1  0  0  0
  6 13  1  0  0  0
  2 14  1  0  0  0
 21 24  1  0  0  0
 20 25  1  0  0  0
 12 15  1  0  0  0
 13 16  1  0  0  0
 14 17  1  0  0  0
 24 26  1  0  0  0
 25 27  1  0  0  0
M  END
> <minimizedAffinity>
-8.73477

$$$$
Quercetin


 27 29  0  0  0  0  0  0  0  0999 V2000
    4.8628   28.3104   26.5037 C   0  0  0  0  0  0  0  0  0  0  0  0
    4.9153   29.6466   26.6788 C   0  0  0  0  0  0  0  0  0  0  0  0
    4.5251   30.1887   28.0084 C   0  0  0  0  0  0  0  0  0  0  0  0
    4.5542   31.3873   28.2780 O   0  0  0  0  0  0  0  0  0  0  0  0
    4.0919   29.2236   29.0253 C   0  0  0  0  0  0  0  0  0  0  0  0
    3.7136   29.6333   30.3098 C   0  0  0  0  0  0  0  0  0  0  0  0
    3.3034   28.6970   31.2556 C   0  0  0  0  0  0  0  0  0  0  0  0
    3.2724   27.3504   30.9056 C   0  0  0  0  0  0  0  0  0  0  0  0
    3.6469   26.9306   29.6318 C   0  0  0  0  0  0  0  0  0  0  0  0
    4.0612   27.8732   28.6903 C   0  0  0  0  0  0  0  0  0  0  0  0
    4.4305   27.4029   27.4565 O   0  0  0  0  0  0  0  0  0  0  0  0
    2.8775   26.3968   31.7967 O   0  0  0  0  0  0  0  0  0  0  0  0
    3.7246   30.9434   30.7084 O   0  0  0  0  0  0  0  0  0  0  0  0
    5.3050   30.5550   25.7101 O   0  0  0  0  0  0  0  0  0  0  0  0
    2.6474   26.8289   32.6370 H   0  0  0  0  0  0  0  0  0  0  0  0
    4.0266   31.4919   29.9473 H   0  0  0  0  0  0  0  0  0  0  0  0
    5.3628   30.1020   24.8523 H   0  0  0  0  0  0  0  0  0  0  0  0
    6.3739   26.7876   25.2197 C   0  0  0  0  0  0  0  0  0  0  0  0
    6.7936   26.1994   24.0222 C   0  0  0  0  0  0  0  0  0  0  0  0
    6.1040   26.4869   22.8519 C   0  0  0  0  0  0  0  0  0  0  0  0
    5.0039   27.3411   22.8751 C   0  0  0  0  0  0  0  0  0  0  0  0
    4.5792   27.9304   24.0588 C   0  0  0  0  0  0  0  0  0  0  0  0
    5.2742   27.6660   25.2449 C   0  0  0  0  0  0  0  0  0  0  0  0
    4.3313   27.6148   21.7186 O   0  0  0  0  0  0  0  0  0  0  0  0
    6.4703   25.9551   21.6475 O   0  0  0  0  0  0  0  0  0  0  0  0
    4.7952   27.0947   21.0320 H   0  0  0  0  0  0  0  0  0  0  0  0
    7.2499   25.3896   21.7857 H   0  0  0  0  0  0  0  0  0  0  0  0
 18 19  2  0  0  0
 19 20  1  0  0  0
 20 21  2  0  0  0
 21 22  1  0  0  0
 22 23  2  0  0  0
 18 23  1  0  0  0
 23  1  1  0  0  0
  1  2  2  0  0  0
  2  3  1  0  0  0
  3  4  2  0  0  0
  3  5  1  0  0  0
  5  6  2  0  0  0
  6  7  1  0  0  0
  7  8  2  0  0  0
  8  9  1  0  0  0
  9 10  2  0  0  0
  5 10  1  0  0  0
 10 11  1  0  0  0
  1 11  1  0  0  0
  8 12  1  0  0  0
  6 13  1  0  0  0
  2 14  1  0  0  0
 21 24  1  0  0  0
 20 25  1  0  0  0
 12 15  1  0  0  0
 13 16  1  0  0  0
 14 17  1  0  0  0
 24 26  1  0  0  0
 25 27  1  0  0  0
M  END
> <minimizedAffinity>
-8.50433

$$$$
Quercetin


 27 29  0  0  0  0  0  0  0  0999 V2000
    6.1824   26.2058   25.1685 C   0  0  0  0  0  0  0  0  0  0  0  0
    6.0916   25.7962   26.4503 C   0  0  0  0  0  0  0  0  0  0  0  0
    5.3683   26.6735   27.4101 C   0  0  0  0  0  0  0  0  0  0  0  0
    5.2132   26.3858   28.5947 O   0  0  0  0  0  0  0  0  0  0  0  0
    4.8241   27.9326   26.8890 C   0  0  0  0  0  0  0  0  0  0  0  0
    4.1197   28.8216   27.7102 C   0  0  0  0  0  0  0  0  0  0  0  0
    3.6163   30.0118   27.1912 C   0  0  0  0  0  0  0  0  0  0  0  0
    3.8251   30.3059   25.8470 C   0  0  0  0  0  0  0  0  0  0  0  0
    4.5233   29.4295   25.0201 C   0  0  0  0  0  0  0  0  0  0  0  0
    5.0212   28.2367   25.5452 C   0  0  0  0  0  0  0  0  0  0  0  0
    5.6896   27.4059   24.6834 O   0  0  0  0  0  0  0  0  0  0  0  0
    3.3522   31.4587   25.2933 O   0  0  0  0  0  0  0  0  0  0  0  0
    3.8851   28.5839   29.0383 O   0  0  0  0  0  0  0  0  0  0  0  0
    6.6242   24.6172   26.9419 O   0  0  0  0  0  0  0  0  0  0  0  0
    2.8894   31.9693   25.9795 H   0  0  0  0  0  0  0  0  0  0  0  0
    4.2968   27.7193   29.2714 H   0  0  0  0  0  0  0  0  0  0  0  0
    7.2110   24.2281   26.2721 H   0  0  0  0  0  0  0  0  0  0  0  0
    6.5744   25.6370   22.7657 C   0  0  0  0  0  0  0  0  0  0  0  0
    7.1592   24.8456   21.7718 C   0  0  0  0  0  0  0  0  0  0  0  0
    8.0094   23.8135   22.1453 C   0  0  0  0  0  0  0  0  0  0  0  0
    8.2823   23.5785   23.4910 C   0  0  0  0  0  0  0  0  0  0  0  0
    7.7065   24.3584   24.4855 C   0  0  0  0  0  0  0  0  0  0  0  0
    6.8325   25.3917   24.1276 C   0  0  0  0  0  0  0  0  0  0  0  0
    9.1222   22.5623   23.8470 O   0  0  0  0  0  0  0  0  0  0  0  0
    8.6029   22.9963   21.2245 O   0  0  0  0  0  0  0  0  0  0  0  0
    9.4053   22.1650   22.9990 H   0  0  0  0  0  0  0  0  0  0  0  0
    8.3167   23.2746   20.3372 H   0  0  0  0  0  0  0  0  0  0  0  0
 18 19  2  0  0  0
 19 20  1  0  0  0
 20 21  2  0  0  0
 21 22  1  0  0  0
 22 23  2  0  0  0
 18 23  1  0  0  0
 23  1  1  0  0  0
  1  2  2  0  0  0
  2  3  1  0  0  0
  3  4  2  0  0  0
  3  5  1  0  0  0
  5  6  2  0  0  0
  6  7  1  0  0  0
  7  8  2  0  0  0
  8  9  1  0  0  0
  9 10  2  0  0  0
  5 10  1  0  0  0
 10 11  1  0  0  0
  1 11  1  0  0  0
  8 12  1  0  0  0
  6 13  1  0  0  0
  2 14  1  0  0  0
 21 24  1  0  0  0
 20 25  1  0  0  0
 12 15  1  0  0  0
 13 16  1  0  0  0
 14 17  1  0  0  0
 24 26  1  0  0  0
 25 27  1  0  0  0
M  END
> <minimizedAffinity>
-8.19315

$$$$
