Quercetin


 27 29  0  0  0  0  0  0  0  0999 V2000
  -12.1073   32.8998   23.2984 C   0  0  0  0  0  0  0  0  0  0  0  0
  -11.6277   34.0738   23.7574 C   0  0  0  0  0  0  0  0  0  0  0  0
  -12.2922   34.6798   24.9427 C   0  0  0  0  0  0  0  0  0  0  0  0
  -11.9232   35.7363   25.4505 O   0  0  0  0  0  0  0  0  0  0  0  0
  -13.4370   33.9591   25.5114 C   0  0  0  0  0  0  0  0  0  0  0  0
  -14.1235   34.4424   26.6321 C   0  0  0  0  0  0  0  0  0  0  0  0
  -15.2090   33.7405   27.1501 C   0  0  0  0  0  0  0  0  0  0  0  0
  -15.6028   32.5545   26.5374 C   0  0  0  0  0  0  0  0  0  0  0  0
  -14.9276   32.0633   25.4229 C   0  0  0  0  0  0  0  0  0  0  0  0
  -13.8381   32.7690   24.9115 C   0  0  0  0  0  0  0  0  0  0  0  0
  -13.2031   32.2331   23.8211 O   0  0  0  0  0  0  0  0  0  0  0  0
  -16.6596   31.8325   27.0074 O   0  0  0  0  0  0  0  0  0  0  0  0
  -13.7802   35.6023   27.2742 O   0  0  0  0  0  0  0  0  0  0  0  0
  -10.5604   34.7605   23.2053 O   0  0  0  0  0  0  0  0  0  0  0  0
  -17.0318   32.2889   27.7813 H   0  0  0  0  0  0  0  0  0  0  0  0
  -13.0079   35.9948   26.8042 H   0  0  0  0  0  0  0  0  0  0  0  0
  -10.3315   34.3605   22.3497 H   0  0  0  0  0  0  0  0  0  0  0  0
  -10.1996   31.6470   22.2778 C   0  0  0  0  0  0  0  0  0  0  0  0
   -9.5947   31.0027   21.1938 C   0  0  0  0  0  0  0  0  0  0  0  0
  -10.2922   30.8965   19.9980 C   0  0  0  0  0  0  0  0  0  0  0  0
  -11.5799   31.4160   19.8858 C   0  0  0  0  0  0  0  0  0  0  0  0
  -12.1893   32.0576   20.9562 C   0  0  0  0  0  0  0  0  0  0  0  0
  -11.4934   32.1898   22.1636 C   0  0  0  0  0  0  0  0  0  0  0  0
  -12.2579   31.3035   18.7057 O   0  0  0  0  0  0  0  0  0  0  0  0
   -9.7536   30.2902   18.8980 O   0  0  0  0  0  0  0  0  0  0  0  0
  -11.6474   30.8205   18.1133 H   0  0  0  0  0  0  0  0  0  0  0  0
   -8.8574   29.9856   19.1231 H   0  0  0  0  0  0  0  0  0  0  0  0
 18 19  2  0  0  0
 19 20  1  0  0  0
 20 21  2  0  0  0
 21 22  1  0  0  0
 22 23  2  0  0  0
 18 23  1  0  0  0
 23  1  1  0  0  0
  1  2  2  0  0  0
  2  3  1  0  0  0
  3  4  2  0  0  0
  3  5  1  0  0  0
  5  6  2  0  0  0
  6  7  1  0  0  0
  7  8  2  0  0  0
  8  9  1  0  0  0
  9 10  2  0  0  0
  5 10  1  0  0  0
 10 11  1  0  0  0
  1 11  1  0  0  0
  8 12  1  0  0  0
  6 13  1  0  0  0
  2 14  1  0  0  0
 21 24  1  0  0  0
 20 25  1  0  0  0
 12 15  1  0  0  0
 13 16  1  0  0  0
 14 17  1  0  0  0
 24 26  1  0  0  0
 25 27  1  0  0  0
M  END
> <minimizedAffinity>
-5.42055

$$$$
Quercetin


 27 29  0  0  0  0  0  0  0  0999 V2000
  -12.3989   31.9437   22.3660 C   0  0  0  0  0  0  0  0  0  0  0  0
  -11.0755   31.7520   22.1900 C   0  0  0  0  0  0  0  0  0  0  0  0
  -10.6067   31.3418   20.8388 C   0  0  0  0  0  0  0  0  0  0  0  0
   -9.4223   31.1587   20.5675 O   0  0  0  0  0  0  0  0  0  0  0  0
  -11.6284   31.1573   19.8018 C   0  0  0  0  0  0  0  0  0  0  0  0
  -11.2878   30.7813   18.4966 C   0  0  0  0  0  0  0  0  0  0  0  0
  -12.2774   30.6097   17.5319 C   0  0  0  0  0  0  0  0  0  0  0  0
  -13.6082   30.8146   17.8837 C   0  0  0  0  0  0  0  0  0  0  0  0
  -13.9594   31.1894   19.1781 C   0  0  0  0  0  0  0  0  0  0  0  0
  -12.9629   31.3640   20.1387 C   0  0  0  0  0  0  0  0  0  0  0  0
  -13.3643   31.7454   21.3929 O   0  0  0  0  0  0  0  0  0  0  0  0
  -14.6123   30.6582   16.9746 O   0  0  0  0  0  0  0  0  0  0  0  0
   -9.9962   30.5665   18.0953 O   0  0  0  0  0  0  0  0  0  0  0  0
  -10.1174   31.9074   23.1765 O   0  0  0  0  0  0  0  0  0  0  0  0
  -14.2250   30.3983   16.1212 H   0  0  0  0  0  0  0  0  0  0  0  0
   -9.4064   30.7158   18.8706 H   0  0  0  0  0  0  0  0  0  0  0  0
  -10.5579   32.0014   24.0376 H   0  0  0  0  0  0  0  0  0  0  0  0
  -12.8166   33.7366   24.0575 C   0  0  0  0  0  0  0  0  0  0  0  0
  -13.3182   34.1681   25.2897 C   0  0  0  0  0  0  0  0  0  0  0  0
  -13.9743   33.2572   26.1067 C   0  0  0  0  0  0  0  0  0  0  0  0
  -14.1383   31.9358   25.6977 C   0  0  0  0  0  0  0  0  0  0  0  0
  -13.6438   31.4973   24.4762 C   0  0  0  0  0  0  0  0  0  0  0  0
  -12.9635   32.3979   23.6480 C   0  0  0  0  0  0  0  0  0  0  0  0
  -14.7876   31.0489   26.5080 O   0  0  0  0  0  0  0  0  0  0  0  0
  -14.4767   33.6116   27.3273 O   0  0  0  0  0  0  0  0  0  0  0  0
  -15.0467   31.5726   27.2927 H   0  0  0  0  0  0  0  0  0  0  0  0
  -14.2833   34.5532   27.4774 H   0  0  0  0  0  0  0  0  0  0  0  0
 18 19  2  0  0  0
 19 20  1  0  0  0
 20 21  2  0  0  0
 21 22  1  0  0  0
 22 23  2  0  0  0
 18 23  1  0  0  0
 23  1  1  0  0  0
  1  2  2  0  0  0
  2  3  1  0  0  0
  3  4  2  0  0  0
  3  5  1  0  0  0
  5  6  2  0  0  0
  6  7  1  0  0  0
  7  8  2  0  0  0
  8  9  1  0  0  0
  9 10  2  0  0  0
  5 10  1  0  0  0
 10 11  1  0  0  0
  1 11  1  0  0  0
  8 12  1  0  0  0
  6 13  1  0  0  0
  2 14  1  0  0  0
 21 24  1  0  0  0
 20 25  1  0  0  0
 12 15  1  0  0  0
 13 16  1  0  0  0
 14 17  1  0  0  0
 24 26  1  0  0  0
 25 27  1  0  0  0
M  END
> <minimizedAffinity>
-5.16852

$$$$
Quercetin


 27 29  0  0  0  0  0  0  0  0999 V2000
  -10.8647   33.1637   21.2506 C   0  0  0  0  0  0  0  0  0  0  0  0
  -10.3095   34.1982   21.9143 C   0  0  0  0  0  0  0  0  0  0  0  0
  -10.9049   34.5843   23.2220 C   0  0  0  0  0  0  0  0  0  0  0  0
  -10.4650   35.4992   23.9145 O   0  0  0  0  0  0  0  0  0  0  0  0
  -12.0689   33.8180   23.6814 C   0  0  0  0  0  0  0  0  0  0  0  0
  -12.6948   34.0980   24.9024 C   0  0  0  0  0  0  0  0  0  0  0  0
  -13.8002   33.3575   25.3136 C   0  0  0  0  0  0  0  0  0  0  0  0
  -14.2749   32.3381   24.4936 C   0  0  0  0  0  0  0  0  0  0  0  0
  -13.6606   32.0496   23.2776 C   0  0  0  0  0  0  0  0  0  0  0  0
  -12.5509   32.7923   22.8735 C   0  0  0  0  0  0  0  0  0  0  0  0
  -11.9783   32.4571   21.6737 O   0  0  0  0  0  0  0  0  0  0  0  0
  -15.3542   31.5861   24.8527 O   0  0  0  0  0  0  0  0  0  0  0  0
  -12.2710   35.0884   25.7480 O   0  0  0  0  0  0  0  0  0  0  0  0
   -9.2241   34.9315   21.4674 O   0  0  0  0  0  0  0  0  0  0  0  0
  -15.6782   31.8948   25.7161 H   0  0  0  0  0  0  0  0  0  0  0  0
  -11.4933   35.5309   25.3349 H   0  0  0  0  0  0  0  0  0  0  0  0
   -9.0426   34.7010   20.5409 H   0  0  0  0  0  0  0  0  0  0  0  0
   -9.6805   33.5475   19.0825 C   0  0  0  0  0  0  0  0  0  0  0  0
   -9.1958   33.0926   17.8519 C   0  0  0  0  0  0  0  0  0  0  0  0
   -9.3499   31.7533   17.5201 C   0  0  0  0  0  0  0  0  0  0  0  0
   -9.9695   30.8754   18.4066 C   0  0  0  0  0  0  0  0  0  0  0  0
  -10.4543   31.3171   19.6308 C   0  0  0  0  0  0  0  0  0  0  0  0
  -10.3238   32.6680   19.9737 C   0  0  0  0  0  0  0  0  0  0  0  0
  -10.1134   29.5595   18.0712 O   0  0  0  0  0  0  0  0  0  0  0  0
   -8.9100   31.2481   16.3289 O   0  0  0  0  0  0  0  0  0  0  0  0
   -9.7004   29.4814   17.1878 H   0  0  0  0  0  0  0  0  0  0  0  0
   -8.5089   31.9722   15.8175 H   0  0  0  0  0  0  0  0  0  0  0  0
 18 19  2  0  0  0
 19 20  1  0  0  0
 20 21  2  0  0  0
 21 22  1  0  0  0
 22 23  2  0  0  0
 18 23  1  0  0  0
 23  1  1  0  0  0
  1  2  2  0  0  0
  2  3  1  0  0  0
  3  4  2  0  0  0
  3  5  1  0  0  0
  5  6  2  0  0  0
  6  7  1  0  0  0
  7  8  2  0  0  0
  8  9  1  0  0  0
  9 10  2  0  0  0
  5 10  1  0  0  0
 10 11  1  0  0  0
  1 11  1  0  0  0
  8 12  1  0  0  0
  6 13  1  0  0  0
  2 14  1  0  0  0
 21 24  1  0  0  0
 20 25  1  0  0  0
 12 15  1  0  0  0
 13 16  1  0  0  0
 14 17  1  0  0  0
 24 26  1  0  0  0
 25 27  1  0  0  0
M  END
> <minimizedAffinity>
-4.91545

$$$$
Quercetin


 27 29  0  0  0  0  0  0  0  0999 V2000
  -11.3941   32.4713   21.4260 C   0  0  0  0  0  0  0  0  0  0  0  0
  -10.8104   33.6755   21.2585 C   0  0  0  0  0  0  0  0  0  0  0  0
   -9.9898   33.8856   20.0353 C   0  0  0  0  0  0  0  0  0  0  0  0
   -9.4306   34.9492   19.7781 O   0  0  0  0  0  0  0  0  0  0  0  0
   -9.8622   32.7533   19.1106 C   0  0  0  0  0  0  0  0  0  0  0  0
   -9.1194   32.8537   17.9278 C   0  0  0  0  0  0  0  0  0  0  0  0
   -9.0115   31.7628   17.0689 C   0  0  0  0  0  0  0  0  0  0  0  0
   -9.6497   30.5722   17.4037 C   0  0  0  0  0  0  0  0  0  0  0  0
  -10.3919   30.4603   18.5767 C   0  0  0  0  0  0  0  0  0  0  0  0
  -10.4997   31.5583   19.4306 C   0  0  0  0  0  0  0  0  0  0  0  0
  -11.2527   31.3958   20.5648 O   0  0  0  0  0  0  0  0  0  0  0  0
   -9.5728   29.4768   16.5954 O   0  0  0  0  0  0  0  0  0  0  0  0
   -8.4714   33.9991   17.5489 O   0  0  0  0  0  0  0  0  0  0  0  0
  -10.9168   34.7342   22.1436 O   0  0  0  0  0  0  0  0  0  0  0  0
   -9.0286   29.6969   15.8200 H   0  0  0  0  0  0  0  0  0  0  0  0
   -8.6253   34.6814   18.2432 H   0  0  0  0  0  0  0  0  0  0  0  0
  -11.3225   34.4208   22.9692 H   0  0  0  0  0  0  0  0  0  0  0  0
  -13.0867   33.1762   23.1256 C   0  0  0  0  0  0  0  0  0  0  0  0
  -13.8912   32.9121   24.2388 C   0  0  0  0  0  0  0  0  0  0  0  0
  -13.8780   31.6392   24.7933 C   0  0  0  0  0  0  0  0  0  0  0  0
  -13.0818   30.6389   24.2402 C   0  0  0  0  0  0  0  0  0  0  0  0
  -12.2793   30.8910   23.1351 C   0  0  0  0  0  0  0  0  0  0  0  0
  -12.2664   32.1737   22.5746 C   0  0  0  0  0  0  0  0  0  0  0  0
  -13.0786   29.3897   24.7920 O   0  0  0  0  0  0  0  0  0  0  0  0
  -14.6310   31.3195   25.8881 O   0  0  0  0  0  0  0  0  0  0  0  0
  -13.7098   29.4455   25.5374 H   0  0  0  0  0  0  0  0  0  0  0  0
  -15.1244   32.1116   26.1634 H   0  0  0  0  0  0  0  0  0  0  0  0
 18 19  2  0  0  0
 19 20  1  0  0  0
 20 21  2  0  0  0
 21 22  1  0  0  0
 22 23  2  0  0  0
 18 23  1  0  0  0
 23  1  1  0  0  0
  1  2  2  0  0  0
  2  3  1  0  0  0
  3  4  2  0  0  0
  3  5  1  0  0  0
  5  6  2  0  0  0
  6  7  1  0  0  0
  7  8  2  0  0  0
  8  9  1  0  0  0
  9 10  2  0  0  0
  5 10  1  0  0  0
 10 11  1  0  0  0
  1 11  1  0  0  0
  8 12  1  0  0  0
  6 13  1  0  0  0
  2 14  1  0  0  0
 21 24  1  0  0  0
 20 25  1  0  0  0
 12 15  1  0  0  0
 13 16  1  0  0  0
 14 17  1  0  0  0
 24 26  1  0  0  0
 25 27  1  0  0  0
M  END
> <minimizedAffinity>
-4.88400

$$$$
Quercetin


 27 29  0  0  0  0  0  0  0  0999 V2000
  -12.7717   32.0934   21.9665 C   0  0  0  0  0  0  0  0  0  0  0  0
  -13.8306   31.2664   21.8484 C   0  0  0  0  0  0  0  0  0  0  0  0
  -14.8416   31.2723   22.9400 C   0  0  0  0  0  0  0  0  0  0  0  0
  -15.8508   30.5715   22.9223 O   0  0  0  0  0  0  0  0  0  0  0  0
  -14.5966   32.1679   24.0763 C   0  0  0  0  0  0  0  0  0  0  0  0
  -15.4932   32.2527   25.1487 C   0  0  0  0  0  0  0  0  0  0  0  0
  -15.2353   33.1086   26.2165 C   0  0  0  0  0  0  0  0  0  0  0  0
  -14.0741   33.8757   26.2038 C   0  0  0  0  0  0  0  0  0  0  0  0
  -13.1754   33.8008   25.1428 C   0  0  0  0  0  0  0  0  0  0  0  0
  -13.4418   32.9446   24.0740 C   0  0  0  0  0  0  0  0  0  0  0  0
  -12.5293   32.9202   23.0509 O   0  0  0  0  0  0  0  0  0  0  0  0
  -13.7778   34.7275   27.2265 O   0  0  0  0  0  0  0  0  0  0  0  0
  -16.6496   31.5220   25.2137 O   0  0  0  0  0  0  0  0  0  0  0  0
  -14.0471   30.4082   20.7844 O   0  0  0  0  0  0  0  0  0  0  0  0
  -14.4860   34.6778   27.8912 H   0  0  0  0  0  0  0  0  0  0  0  0
  -16.7026   30.9611   24.4051 H   0  0  0  0  0  0  0  0  0  0  0  0
  -13.2451   30.3694   20.2370 H   0  0  0  0  0  0  0  0  0  0  0  0
  -10.5909   31.3905   20.9663 C   0  0  0  0  0  0  0  0  0  0  0  0
   -9.5888   31.5129   19.9983 C   0  0  0  0  0  0  0  0  0  0  0  0
   -9.7443   32.4452   18.9812 C   0  0  0  0  0  0  0  0  0  0  0  0
  -10.8879   33.2384   18.9224 C   0  0  0  0  0  0  0  0  0  0  0  0
  -11.8886   33.1247   19.8788 C   0  0  0  0  0  0  0  0  0  0  0  0
  -11.7397   32.2028   20.9216 C   0  0  0  0  0  0  0  0  0  0  0  0
  -11.0318   34.1503   17.9161 O   0  0  0  0  0  0  0  0  0  0  0  0
   -8.7972   32.6230   18.0122 O   0  0  0  0  0  0  0  0  0  0  0  0
  -10.2254   34.0490   17.3716 H   0  0  0  0  0  0  0  0  0  0  0  0
   -8.0615   32.0103   18.1856 H   0  0  0  0  0  0  0  0  0  0  0  0
 18 19  2  0  0  0
 19 20  1  0  0  0
 20 21  2  0  0  0
 21 22  1  0  0  0
 22 23  2  0  0  0
 18 23  1  0  0  0
 23  1  1  0  0  0
  1  2  2  0  0  0
  2  3  1  0  0  0
  3  4  2  0  0  0
  3  5  1  0  0  0
  5  6  2  0  0  0
  6  7  1  0  0  0
  7  8  2  0  0  0
  8  9  1  0  0  0
  9 10  2  0  0  0
  5 10  1  0  0  0
 10 11  1  0  0  0
  1 11  1  0  0  0
  8 12  1  0  0  0
  6 13  1  0  0  0
  2 14  1  0  0  0
 21 24  1  0  0  0
 20 25  1  0  0  0
 12 15  1  0  0  0
 13 16  1  0  0  0
 14 17  1  0  0  0
 24 26  1  0  0  0
 25 27  1  0  0  0
M  END
> <minimizedAffinity>
-4.86963

$$$$
