Quercetin


 27 29  0  0  0  0  0  0  0  0999 V2000
   15.6642   10.5749   11.9718 C   0  0  0  0  0  0  0  0  0  0  0  0
   16.4048   10.8296   10.8738 C   0  0  0  0  0  0  0  0  0  0  0  0
   16.0524   10.1150    9.6172 C   0  0  0  0  0  0  0  0  0  0  0  0
   16.6509   10.2876    8.5579 O   0  0  0  0  0  0  0  0  0  0  0  0
   14.9327    9.1683    9.6754 C   0  0  0  0  0  0  0  0  0  0  0  0
   14.5182    8.4538    8.5446 C   0  0  0  0  0  0  0  0  0  0  0  0
   13.4545    7.5588    8.6277 C   0  0  0  0  0  0  0  0  0  0  0  0
   12.8118    7.3830    9.8496 C   0  0  0  0  0  0  0  0  0  0  0  0
   13.2143    8.0883   10.9808 C   0  0  0  0  0  0  0  0  0  0  0  0
   14.2778    8.9867   10.8899 C   0  0  0  0  0  0  0  0  0  0  0  0
   14.6234    9.6629   12.0313 O   0  0  0  0  0  0  0  0  0  0  0  0
   11.7662    6.5177    9.9808 O   0  0  0  0  0  0  0  0  0  0  0  0
   15.1134    8.5870    7.3185 O   0  0  0  0  0  0  0  0  0  0  0  0
   17.4731   11.7082   10.8286 O   0  0  0  0  0  0  0  0  0  0  0  0
   11.5955    6.0992    9.1197 H   0  0  0  0  0  0  0  0  0  0  0  0
   15.8463    9.2403    7.4038 H   0  0  0  0  0  0  0  0  0  0  0  0
   17.7089   11.9712   11.7339 H   0  0  0  0  0  0  0  0  0  0  0  0
   15.1851   12.4364   13.5705 C   0  0  0  0  0  0  0  0  0  0  0  0
   15.4245   13.1167   14.7688 C   0  0  0  0  0  0  0  0  0  0  0  0
   16.3712   12.6145   15.6516 C   0  0  0  0  0  0  0  0  0  0  0  0
   17.0636   11.4440   15.3500 C   0  0  0  0  0  0  0  0  0  0  0  0
   16.8334   10.7612   14.1628 C   0  0  0  0  0  0  0  0  0  0  0  0
   15.8956   11.2634   13.2529 C   0  0  0  0  0  0  0  0  0  0  0  0
   17.9907   10.9575   16.2268 O   0  0  0  0  0  0  0  0  0  0  0  0
   16.6610   13.2378   16.8328 O   0  0  0  0  0  0  0  0  0  0  0  0
   17.9770   11.5852   16.9769 H   0  0  0  0  0  0  0  0  0  0  0  0
   16.1094   14.0363   16.9022 H   0  0  0  0  0  0  0  0  0  0  0  0
 18 19  2  0  0  0
 19 20  1  0  0  0
 20 21  2  0  0  0
 21 22  1  0  0  0
 22 23  2  0  0  0
 18 23  1  0  0  0
 23  1  1  0  0  0
  1  2  2  0  0  0
  2  3  1  0  0  0
  3  4  2  0  0  0
  3  5  1  0  0  0
  5  6  2  0  0  0
  6  7  1  0  0  0
  7  8  2  0  0  0
  8  9  1  0  0  0
  9 10  2  0  0  0
  5 10  1  0  0  0
 10 11  1  0  0  0
  1 11  1  0  0  0
  8 12  1  0  0  0
  6 13  1  0  0  0
  2 14  1  0  0  0
 21 24  1  0  0  0
 20 25  1  0  0  0
 12 15  1  0  0  0
 13 16  1  0  0  0
 14 17  1  0  0  0
 24 26  1  0  0  0
 25 27  1  0  0  0
M  END
> <minimizedAffinity>
-6.69533

$$$$
Quercetin


 27 29  0  0  0  0  0  0  0  0999 V2000
   15.8562   10.4709   11.8979 C   0  0  0  0  0  0  0  0  0  0  0  0
   16.4458   10.8845   10.7576 C   0  0  0  0  0  0  0  0  0  0  0  0
   15.9106   10.3640    9.4706 C   0  0  0  0  0  0  0  0  0  0  0  0
   16.3630   10.6907    8.3757 O   0  0  0  0  0  0  0  0  0  0  0  0
   14.7892    9.4203    9.5431 C   0  0  0  0  0  0  0  0  0  0  0  0
   14.2096    8.8814    8.3880 C   0  0  0  0  0  0  0  0  0  0  0  0
   13.1481    7.9850    8.4848 C   0  0  0  0  0  0  0  0  0  0  0  0
   12.6740    7.6311    9.7445 C   0  0  0  0  0  0  0  0  0  0  0  0
   13.2416    8.1609   10.9005 C   0  0  0  0  0  0  0  0  0  0  0  0
   14.3018    9.0618   10.7965 C   0  0  0  0  0  0  0  0  0  0  0  0
   14.8139    9.5614   11.9660 O   0  0  0  0  0  0  0  0  0  0  0  0
   11.6376    6.7571    9.8904 O   0  0  0  0  0  0  0  0  0  0  0  0
   14.6352    9.1937    7.1244 O   0  0  0  0  0  0  0  0  0  0  0  0
   17.5166   11.7590   10.6949 O   0  0  0  0  0  0  0  0  0  0  0  0
   11.3425    6.4707    9.0090 H   0  0  0  0  0  0  0  0  0  0  0  0
   15.3867    9.8265    7.2027 H   0  0  0  0  0  0  0  0  0  0  0  0
   17.8789   11.8849   11.5878 H   0  0  0  0  0  0  0  0  0  0  0  0
   17.1871   10.2256   14.0000 C   0  0  0  0  0  0  0  0  0  0  0  0
   17.5620   10.6663   15.2734 C   0  0  0  0  0  0  0  0  0  0  0  0
   17.0266   11.8507   15.7614 C   0  0  0  0  0  0  0  0  0  0  0  0
   16.1370   12.5926   14.9875 C   0  0  0  0  0  0  0  0  0  0  0  0
   15.7583   12.1635   13.7221 C   0  0  0  0  0  0  0  0  0  0  0  0
   16.2743   10.9622   13.2218 C   0  0  0  0  0  0  0  0  0  0  0  0
   15.6185   13.7575   15.4764 O   0  0  0  0  0  0  0  0  0  0  0  0
   17.3421   12.3300   17.0018 O   0  0  0  0  0  0  0  0  0  0  0  0
   16.0242   13.8583   16.3609 H   0  0  0  0  0  0  0  0  0  0  0  0
   17.9623   11.7092   17.4223 H   0  0  0  0  0  0  0  0  0  0  0  0
 18 19  2  0  0  0
 19 20  1  0  0  0
 20 21  2  0  0  0
 21 22  1  0  0  0
 22 23  2  0  0  0
 18 23  1  0  0  0
 23  1  1  0  0  0
  1  2  2  0  0  0
  2  3  1  0  0  0
  3  4  2  0  0  0
  3  5  1  0  0  0
  5  6  2  0  0  0
  6  7  1  0  0  0
  7  8  2  0  0  0
  8  9  1  0  0  0
  9 10  2  0  0  0
  5 10  1  0  0  0
 10 11  1  0  0  0
  1 11  1  0  0  0
  8 12  1  0  0  0
  6 13  1  0  0  0
  2 14  1  0  0  0
 21 24  1  0  0  0
 20 25  1  0  0  0
 12 15  1  0  0  0
 13 16  1  0  0  0
 14 17  1  0  0  0
 24 26  1  0  0  0
 25 27  1  0  0  0
M  END
> <minimizedAffinity>
-6.39535

$$$$
Quercetin


 27 29  0  0  0  0  0  0  0  0999 V2000
   14.3318    8.4501   10.4194 C   0  0  0  0  0  0  0  0  0  0  0  0
   15.6164    8.2144   10.0830 C   0  0  0  0  0  0  0  0  0  0  0  0
   16.6787    8.8004   10.9444 C   0  0  0  0  0  0  0  0  0  0  0  0
   17.8781    8.6318   10.7371 O   0  0  0  0  0  0  0  0  0  0  0  0
   16.2438    9.6104   12.0881 C   0  0  0  0  0  0  0  0  0  0  0  0
   17.1664   10.1970   12.9631 C   0  0  0  0  0  0  0  0  0  0  0  0
   16.7272   10.9641   14.0393 C   0  0  0  0  0  0  0  0  0  0  0  0
   15.3602   11.1410   14.2311 C   0  0  0  0  0  0  0  0  0  0  0  0
   14.4330   10.5621   13.3683 C   0  0  0  0  0  0  0  0  0  0  0  0
   14.8794    9.7912   12.2946 C   0  0  0  0  0  0  0  0  0  0  0  0
   13.9231    9.2350   11.4848 O   0  0  0  0  0  0  0  0  0  0  0  0
   14.8819   11.8837   15.2697 O   0  0  0  0  0  0  0  0  0  0  0  0
   18.5214   10.0565   12.8225 O   0  0  0  0  0  0  0  0  0  0  0  0
   16.0221    7.4666    8.9914 O   0  0  0  0  0  0  0  0  0  0  0  0
   15.6337   12.2231   15.7849 H   0  0  0  0  0  0  0  0  0  0  0  0
   18.6900    9.5008   12.0262 H   0  0  0  0  0  0  0  0  0  0  0  0
   15.2549    7.2919    8.4210 H   0  0  0  0  0  0  0  0  0  0  0  0
   12.9351    6.4967    9.7234 C   0  0  0  0  0  0  0  0  0  0  0  0
   11.8886    5.9387    8.9821 C   0  0  0  0  0  0  0  0  0  0  0  0
   11.1074    6.7682    8.1888 C   0  0  0  0  0  0  0  0  0  0  0  0
   11.3581    8.1377    8.1421 C   0  0  0  0  0  0  0  0  0  0  0  0
   12.3949    8.7015    8.8742 C   0  0  0  0  0  0  0  0  0  0  0  0
   13.2041    7.8772    9.6650 C   0  0  0  0  0  0  0  0  0  0  0  0
   10.5818    8.9447    7.3605 O   0  0  0  0  0  0  0  0  0  0  0  0
   10.0781    6.2845    7.4309 O   0  0  0  0  0  0  0  0  0  0  0  0
    9.9274    8.3420    6.9537 H   0  0  0  0  0  0  0  0  0  0  0  0
   10.0280    5.3214    7.5597 H   0  0  0  0  0  0  0  0  0  0  0  0
 18 19  2  0  0  0
 19 20  1  0  0  0
 20 21  2  0  0  0
 21 22  1  0  0  0
 22 23  2  0  0  0
 18 23  1  0  0  0
 23  1  1  0  0  0
  1  2  2  0  0  0
  2  3  1  0  0  0
  3  4  2  0  0  0
  3  5  1  0  0  0
  5  6  2  0  0  0
  6  7  1  0  0  0
  7  8  2  0  0  0
  8  9  1  0  0  0
  9 10  2  0  0  0
  5 10  1  0  0  0
 10 11  1  0  0  0
  1 11  1  0  0  0
  8 12  1  0  0  0
  6 13  1  0  0  0
  2 14  1  0  0  0
 21 24  1  0  0  0
 20 25  1  0  0  0
 12 15  1  0  0  0
 13 16  1  0  0  0
 14 17  1  0  0  0
 24 26  1  0  0  0
 25 27  1  0  0  0
M  END
> <minimizedAffinity>
-6.14031

$$$$
Quercetin


 27 29  0  0  0  0  0  0  0  0999 V2000
   15.8174   10.2499   12.8240 C   0  0  0  0  0  0  0  0  0  0  0  0
   17.0689    9.9169   12.4474 C   0  0  0  0  0  0  0  0  0  0  0  0
   17.2240    9.0051   11.2819 C   0  0  0  0  0  0  0  0  0  0  0  0
   18.3184    8.6542   10.8468 O   0  0  0  0  0  0  0  0  0  0  0  0
   15.9960    8.5203   10.6415 C   0  0  0  0  0  0  0  0  0  0  0  0
   16.0363    7.6659    9.5328 C   0  0  0  0  0  0  0  0  0  0  0  0
   14.8558    7.2176    8.9456 C   0  0  0  0  0  0  0  0  0  0  0  0
   13.6370    7.6283    9.4772 C   0  0  0  0  0  0  0  0  0  0  0  0
   13.5840    8.4784   10.5789 C   0  0  0  0  0  0  0  0  0  0  0  0
   14.7702    8.9274   11.1598 C   0  0  0  0  0  0  0  0  0  0  0  0
   14.6590    9.7722   12.2340 O   0  0  0  0  0  0  0  0  0  0  0  0
   12.4548    7.2157    8.9375 O   0  0  0  0  0  0  0  0  0  0  0  0
   17.2058    7.2302    8.9689 O   0  0  0  0  0  0  0  0  0  0  0  0
   18.2241   10.3604   13.0672 O   0  0  0  0  0  0  0  0  0  0  0  0
   12.6415    6.6328    8.1817 H   0  0  0  0  0  0  0  0  0  0  0  0
   17.9543    7.6151    9.4816 H   0  0  0  0  0  0  0  0  0  0  0  0
   17.9906   10.7962   13.9039 H   0  0  0  0  0  0  0  0  0  0  0  0
   14.2350   11.5805   14.2298 C   0  0  0  0  0  0  0  0  0  0  0  0
   13.9773   12.4946   15.2566 C   0  0  0  0  0  0  0  0  0  0  0  0
   15.0414   13.0034   15.9890 C   0  0  0  0  0  0  0  0  0  0  0  0
   16.3450   12.5996   15.7096 C   0  0  0  0  0  0  0  0  0  0  0  0
   16.6116   11.6927   14.6921 C   0  0  0  0  0  0  0  0  0  0  0  0
   15.5522   11.1836   13.9316 C   0  0  0  0  0  0  0  0  0  0  0  0
   17.3840   13.1044   16.4380 O   0  0  0  0  0  0  0  0  0  0  0  0
   14.8587   13.9087   16.9964 O   0  0  0  0  0  0  0  0  0  0  0  0
   16.9643   13.7038   17.0874 H   0  0  0  0  0  0  0  0  0  0  0  0
   13.9072   14.0979   17.0705 H   0  0  0  0  0  0  0  0  0  0  0  0
 18 19  2  0  0  0
 19 20  1  0  0  0
 20 21  2  0  0  0
 21 22  1  0  0  0
 22 23  2  0  0  0
 18 23  1  0  0  0
 23  1  1  0  0  0
  1  2  2  0  0  0
  2  3  1  0  0  0
  3  4  2  0  0  0
  3  5  1  0  0  0
  5  6  2  0  0  0
  6  7  1  0  0  0
  7  8  2  0  0  0
  8  9  1  0  0  0
  9 10  2  0  0  0
  5 10  1  0  0  0
 10 11  1  0  0  0
  1 11  1  0  0  0
  8 12  1  0  0  0
  6 13  1  0  0  0
  2 14  1  0  0  0
 21 24  1  0  0  0
 20 25  1  0  0  0
 12 15  1  0  0  0
 13 16  1  0  0  0
 14 17  1  0  0  0
 24 26  1  0  0  0
 25 27  1  0  0  0
M  END
> <minimizedAffinity>
-5.91272

$$$$
Quercetin


 27 29  0  0  0  0  0  0  0  0999 V2000
   16.3163   10.1017   12.1260 C   0  0  0  0  0  0  0  0  0  0  0  0
   17.4236    9.4037   12.4511 C   0  0  0  0  0  0  0  0  0  0  0  0
   18.0719    9.6986   13.7574 C   0  0  0  0  0  0  0  0  0  0  0  0
   19.0731    9.1084   14.1569 O   0  0  0  0  0  0  0  0  0  0  0  0
   17.4643   10.7458   14.5865 C   0  0  0  0  0  0  0  0  0  0  0  0
   17.9943   11.0904   15.8360 C   0  0  0  0  0  0  0  0  0  0  0  0
   17.4002   12.0904   16.6018 C   0  0  0  0  0  0  0  0  0  0  0  0
   16.2751   12.7433   16.1070 C   0  0  0  0  0  0  0  0  0  0  0  0
   15.7384   12.4090   14.8663 C   0  0  0  0  0  0  0  0  0  0  0  0
   16.3357   11.4032   14.1060 C   0  0  0  0  0  0  0  0  0  0  0  0
   15.7582   11.1068   12.8984 O   0  0  0  0  0  0  0  0  0  0  0  0
   15.6589   13.7292   16.8194 O   0  0  0  0  0  0  0  0  0  0  0  0
   19.0982   10.4820   16.3716 O   0  0  0  0  0  0  0  0  0  0  0  0
   18.0052    8.4310   11.6567 O   0  0  0  0  0  0  0  0  0  0  0  0
   16.1361   13.8557   17.6573 H   0  0  0  0  0  0  0  0  0  0  0  0
   19.4167    9.8061   15.7289 H   0  0  0  0  0  0  0  0  0  0  0  0
   17.6008    8.4563   10.7733 H   0  0  0  0  0  0  0  0  0  0  0  0
   14.5331    8.9023   10.8485 C   0  0  0  0  0  0  0  0  0  0  0  0
   13.8422    8.6356    9.6621 C   0  0  0  0  0  0  0  0  0  0  0  0
   14.1861    9.3313    8.5108 C   0  0  0  0  0  0  0  0  0  0  0  0
   15.1981   10.2881    8.5425 C   0  0  0  0  0  0  0  0  0  0  0  0
   15.8902   10.5601    9.7155 C   0  0  0  0  0  0  0  0  0  0  0  0
   15.5689    9.8548   10.8813 C   0  0  0  0  0  0  0  0  0  0  0  0
   15.5264   10.9684    7.4049 O   0  0  0  0  0  0  0  0  0  0  0  0
   13.5588    9.1093    7.3171 O   0  0  0  0  0  0  0  0  0  0  0  0
   14.9157   10.6225    6.7234 H   0  0  0  0  0  0  0  0  0  0  0  0
   12.8870    8.4176    7.4471 H   0  0  0  0  0  0  0  0  0  0  0  0
 18 19  2  0  0  0
 19 20  1  0  0  0
 20 21  2  0  0  0
 21 22  1  0  0  0
 22 23  2  0  0  0
 18 23  1  0  0  0
 23  1  1  0  0  0
  1  2  2  0  0  0
  2  3  1  0  0  0
  3  4  2  0  0  0
  3  5  1  0  0  0
  5  6  2  0  0  0
  6  7  1  0  0  0
  7  8  2  0  0  0
  8  9  1  0  0  0
  9 10  2  0  0  0
  5 10  1  0  0  0
 10 11  1  0  0  0
  1 11  1  0  0  0
  8 12  1  0  0  0
  6 13  1  0  0  0
  2 14  1  0  0  0
 21 24  1  0  0  0
 20 25  1  0  0  0
 12 15  1  0  0  0
 13 16  1  0  0  0
 14 17  1  0  0  0
 24 26  1  0  0  0
 25 27  1  0  0  0
M  END
> <minimizedAffinity>
-5.77482

$$$$
