Quercetin


 27 29  0  0  0  0  0  0  0  0999 V2000
    2.3379   23.2939    8.8811 C   0  0  0  0  0  0  0  0  0  0  0  0
    2.1061   22.5760    7.7632 C   0  0  0  0  0  0  0  0  0  0  0  0
    3.1023   22.6648    6.6616 C   0  0  0  0  0  0  0  0  0  0  0  0
    2.9957   22.0385    5.6097 O   0  0  0  0  0  0  0  0  0  0  0  0
    4.2562   23.5470    6.8703 C   0  0  0  0  0  0  0  0  0  0  0  0
    5.2530   23.6916    5.8975 C   0  0  0  0  0  0  0  0  0  0  0  0
    6.3363   24.5381    6.1194 C   0  0  0  0  0  0  0  0  0  0  0  0
    6.4127   25.2393    7.3192 C   0  0  0  0  0  0  0  0  0  0  0  0
    5.4281   25.1032    8.2945 C   0  0  0  0  0  0  0  0  0  0  0  0
    4.3477   24.2502    8.0679 C   0  0  0  0  0  0  0  0  0  0  0  0
    3.4147   24.1450    9.0669 O   0  0  0  0  0  0  0  0  0  0  0  0
    7.4534   26.0802    7.5820 O   0  0  0  0  0  0  0  0  0  0  0  0
    5.2290   23.0272    4.7003 O   0  0  0  0  0  0  0  0  0  0  0  0
    1.0057   21.7609    7.5626 O   0  0  0  0  0  0  0  0  0  0  0  0
    8.0592   26.0767    6.8212 H   0  0  0  0  0  0  0  0  0  0  0  0
    4.4137   22.4739    4.6741 H   0  0  0  0  0  0  0  0  0  0  0  0
    0.3556   21.9230    8.2664 H   0  0  0  0  0  0  0  0  0  0  0  0
    0.1471   22.7032    9.9308 C   0  0  0  0  0  0  0  0  0  0  0  0
   -0.7223   22.6810   11.0262 C   0  0  0  0  0  0  0  0  0  0  0  0
   -0.2874   23.1905   12.2423 C   0  0  0  0  0  0  0  0  0  0  0  0
    1.0005   23.7061   12.3693 C   0  0  0  0  0  0  0  0  0  0  0  0
    1.8713   23.7328   11.2877 C   0  0  0  0  0  0  0  0  0  0  0  0
    1.4429   23.2401   10.0494 C   0  0  0  0  0  0  0  0  0  0  0  0
    1.4188   24.2021   13.5709 O   0  0  0  0  0  0  0  0  0  0  0  0
   -1.0913   23.2098   13.3474 O   0  0  0  0  0  0  0  0  0  0  0  0
    0.6571   24.0745   14.1713 H   0  0  0  0  0  0  0  0  0  0  0  0
   -1.9529   22.8269   13.1071 H   0  0  0  0  0  0  0  0  0  0  0  0
 18 19  2  0  0  0
 19 20  1  0  0  0
 20 21  2  0  0  0
 21 22  1  0  0  0
 22 23  2  0  0  0
 18 23  1  0  0  0
 23  1  1  0  0  0
  1  2  2  0  0  0
  2  3  1  0  0  0
  3  4  2  0  0  0
  3  5  1  0  0  0
  5  6  2  0  0  0
  6  7  1  0  0  0
  7  8  2  0  0  0
  8  9  1  0  0  0
  9 10  2  0  0  0
  5 10  1  0  0  0
 10 11  1  0  0  0
  1 11  1  0  0  0
  8 12  1  0  0  0
  6 13  1  0  0  0
  2 14  1  0  0  0
 21 24  1  0  0  0
 20 25  1  0  0  0
 12 15  1  0  0  0
 13 16  1  0  0  0
 14 17  1  0  0  0
 24 26  1  0  0  0
 25 27  1  0  0  0
M  END
> <minimizedAffinity>
-8.09765

$$$$
Quercetin


 27 29  0  0  0  0  0  0  0  0999 V2000
    0.8719   23.1139    9.0684 C   0  0  0  0  0  0  0  0  0  0  0  0
    1.8238   23.6615    8.2854 C   0  0  0  0  0  0  0  0  0  0  0  0
    2.1918   22.9442    7.0348 C   0  0  0  0  0  0  0  0  0  0  0  0
    3.0325   23.3653    6.2436 O   0  0  0  0  0  0  0  0  0  0  0  0
    1.5009   21.6794    6.7589 C   0  0  0  0  0  0  0  0  0  0  0  0
    1.7701   20.9345    5.6041 C   0  0  0  0  0  0  0  0  0  0  0  0
    1.1025   19.7354    5.3677 C   0  0  0  0  0  0  0  0  0  0  0  0
    0.1669   19.2874    6.2956 C   0  0  0  0  0  0  0  0  0  0  0  0
   -0.1100   20.0196    7.4472 C   0  0  0  0  0  0  0  0  0  0  0  0
    0.5590   21.2223    7.6759 C   0  0  0  0  0  0  0  0  0  0  0  0
    0.2382   21.9078    8.8191 O   0  0  0  0  0  0  0  0  0  0  0  0
   -0.5116   18.1195    6.1085 O   0  0  0  0  0  0  0  0  0  0  0  0
    2.6796   21.3269    4.6585 O   0  0  0  0  0  0  0  0  0  0  0  0
    2.4875   24.8445    8.5599 O   0  0  0  0  0  0  0  0  0  0  0  0
   -0.2207   17.7184    5.2717 H   0  0  0  0  0  0  0  0  0  0  0  0
    3.0774   22.1795    4.9522 H   0  0  0  0  0  0  0  0  0  0  0  0
    2.2892   25.1180    9.4711 H   0  0  0  0  0  0  0  0  0  0  0  0
   -0.7780   24.5394   10.2918 C   0  0  0  0  0  0  0  0  0  0  0  0
   -1.2160   25.1910   11.4492 C   0  0  0  0  0  0  0  0  0  0  0  0
   -0.4779   25.0585   12.6177 C   0  0  0  0  0  0  0  0  0  0  0  0
    0.6762   24.2787   12.6365 C   0  0  0  0  0  0  0  0  0  0  0  0
    1.1197   23.6278   11.4926 C   0  0  0  0  0  0  0  0  0  0  0  0
    0.3977   23.7653   10.3011 C   0  0  0  0  0  0  0  0  0  0  0  0
    1.3931   24.1531   13.7920 O   0  0  0  0  0  0  0  0  0  0  0  0
   -0.8445   25.6789   13.7789 O   0  0  0  0  0  0  0  0  0  0  0  0
    0.8981   24.6808   14.4503 H   0  0  0  0  0  0  0  0  0  0  0  0
   -1.6574   26.1869   13.6123 H   0  0  0  0  0  0  0  0  0  0  0  0
 18 19  2  0  0  0
 19 20  1  0  0  0
 20 21  2  0  0  0
 21 22  1  0  0  0
 22 23  2  0  0  0
 18 23  1  0  0  0
 23  1  1  0  0  0
  1  2  2  0  0  0
  2  3  1  0  0  0
  3  4  2  0  0  0
  3  5  1  0  0  0
  5  6  2  0  0  0
  6  7  1  0  0  0
  7  8  2  0  0  0
  8  9  1  0  0  0
  9 10  2  0  0  0
  5 10  1  0  0  0
 10 11  1  0  0  0
  1 11  1  0  0  0
  8 12  1  0  0  0
  6 13  1  0  0  0
  2 14  1  0  0  0
 21 24  1  0  0  0
 20 25  1  0  0  0
 12 15  1  0  0  0
 13 16  1  0  0  0
 14 17  1  0  0  0
 24 26  1  0  0  0
 25 27  1  0  0  0
M  END
> <minimizedAffinity>
-7.92950

$$$$
Quercetin


 27 29  0  0  0  0  0  0  0  0999 V2000
    3.0456   23.5212    7.8865 C   0  0  0  0  0  0  0  0  0  0  0  0
    2.0393   22.8330    7.3097 C   0  0  0  0  0  0  0  0  0  0  0  0
    0.8622   22.4875    8.1517 C   0  0  0  0  0  0  0  0  0  0  0  0
   -0.1146   21.8792    7.7204 O   0  0  0  0  0  0  0  0  0  0  0  0
    0.8965   22.9073    9.5573 C   0  0  0  0  0  0  0  0  0  0  0  0
   -0.1662   22.6378   10.4284 C   0  0  0  0  0  0  0  0  0  0  0  0
   -0.1070   23.0445   11.7590 C   0  0  0  0  0  0  0  0  0  0  0  0
    1.0232   23.7196   12.2106 C   0  0  0  0  0  0  0  0  0  0  0  0
    2.0861   23.9941   11.3538 C   0  0  0  0  0  0  0  0  0  0  0  0
    2.0185   23.5879   10.0209 C   0  0  0  0  0  0  0  0  0  0  0  0
    3.0875   23.8954    9.2194 O   0  0  0  0  0  0  0  0  0  0  0  0
    1.1278   24.1371   13.5045 O   0  0  0  0  0  0  0  0  0  0  0  0
   -1.3011   21.9778   10.0388 O   0  0  0  0  0  0  0  0  0  0  0  0
    2.0202   22.4212    5.9886 O   0  0  0  0  0  0  0  0  0  0  0  0
    0.3210   23.8806   13.9830 H   0  0  0  0  0  0  0  0  0  0  0  0
   -1.2076   21.7457    9.0855 H   0  0  0  0  0  0  0  0  0  0  0  0
    2.9022   22.5495    5.6012 H   0  0  0  0  0  0  0  0  0  0  0  0
    4.3088   25.2630    6.6133 C   0  0  0  0  0  0  0  0  0  0  0  0
    5.4169   25.6737    5.8652 C   0  0  0  0  0  0  0  0  0  0  0  0
    6.4524   24.7753    5.6455 C   0  0  0  0  0  0  0  0  0  0  0  0
    6.3904   23.4873    6.1726 C   0  0  0  0  0  0  0  0  0  0  0  0
    5.2945   23.0697    6.9166 C   0  0  0  0  0  0  0  0  0  0  0  0
    4.2332   23.9567    7.1323 C   0  0  0  0  0  0  0  0  0  0  0  0
    7.4158   22.6126    5.9526 O   0  0  0  0  0  0  0  0  0  0  0  0
    7.5567   25.1096    4.9131 O   0  0  0  0  0  0  0  0  0  0  0  0
    8.0645   23.1182    5.4228 H   0  0  0  0  0  0  0  0  0  0  0  0
    7.4568   26.0283    4.6086 H   0  0  0  0  0  0  0  0  0  0  0  0
 18 19  2  0  0  0
 19 20  1  0  0  0
 20 21  2  0  0  0
 21 22  1  0  0  0
 22 23  2  0  0  0
 18 23  1  0  0  0
 23  1  1  0  0  0
  1  2  2  0  0  0
  2  3  1  0  0  0
  3  4  2  0  0  0
  3  5  1  0  0  0
  5  6  2  0  0  0
  6  7  1  0  0  0
  7  8  2  0  0  0
  8  9  1  0  0  0
  9 10  2  0  0  0
  5 10  1  0  0  0
 10 11  1  0  0  0
  1 11  1  0  0  0
  8 12  1  0  0  0
  6 13  1  0  0  0
  2 14  1  0  0  0
 21 24  1  0  0  0
 20 25  1  0  0  0
 12 15  1  0  0  0
 13 16  1  0  0  0
 14 17  1  0  0  0
 24 26  1  0  0  0
 25 27  1  0  0  0
M  END
> <minimizedAffinity>
-7.47551

$$$$
Quercetin


 27 29  0  0  0  0  0  0  0  0999 V2000
    0.5469   22.3015    8.7484 C   0  0  0  0  0  0  0  0  0  0  0  0
    1.7127   22.6925    9.3026 C   0  0  0  0  0  0  0  0  0  0  0  0
    1.6846   23.1798   10.7081 C   0  0  0  0  0  0  0  0  0  0  0  0
    2.6917   23.5422   11.3119 O   0  0  0  0  0  0  0  0  0  0  0  0
    0.3803   23.2159   11.3796 C   0  0  0  0  0  0  0  0  0  0  0  0
    0.2504   23.6496   12.7047 C   0  0  0  0  0  0  0  0  0  0  0  0
   -0.9998   23.6773   13.3175 C   0  0  0  0  0  0  0  0  0  0  0  0
   -2.1172   23.2706   12.5943 C   0  0  0  0  0  0  0  0  0  0  0  0
   -2.0007   22.8366   11.2763 C   0  0  0  0  0  0  0  0  0  0  0  0
   -0.7447   22.8071   10.6696 C   0  0  0  0  0  0  0  0  0  0  0  0
   -0.6869   22.3592    9.3750 O   0  0  0  0  0  0  0  0  0  0  0  0
   -3.3620   23.2806   13.1507 O   0  0  0  0  0  0  0  0  0  0  0  0
    1.3143   24.0606   13.4627 O   0  0  0  0  0  0  0  0  0  0  0  0
    2.9376   22.6760    8.6586 O   0  0  0  0  0  0  0  0  0  0  0  0
   -3.2939   23.6030   14.0658 H   0  0  0  0  0  0  0  0  0  0  0  0
    2.1271   23.9960   12.9091 H   0  0  0  0  0  0  0  0  0  0  0  0
    2.7983   22.5094    7.7114 H   0  0  0  0  0  0  0  0  0  0  0  0
    0.2386   22.6095    6.2865 C   0  0  0  0  0  0  0  0  0  0  0  0
    0.1280   22.0964    4.9902 C   0  0  0  0  0  0  0  0  0  0  0  0
    0.2580   20.7282    4.7934 C   0  0  0  0  0  0  0  0  0  0  0  0
    0.5052   19.8823    5.8722 C   0  0  0  0  0  0  0  0  0  0  0  0
    0.6165   20.3819    7.1633 C   0  0  0  0  0  0  0  0  0  0  0  0
    0.4699   21.7567    7.3823 C   0  0  0  0  0  0  0  0  0  0  0  0
    0.6340   18.5384    5.6669 O   0  0  0  0  0  0  0  0  0  0  0  0
    0.1483   20.1621    3.5543 O   0  0  0  0  0  0  0  0  0  0  0  0
    0.5275   18.4231    4.7013 H   0  0  0  0  0  0  0  0  0  0  0  0
   -0.0286   20.8682    2.9086 H   0  0  0  0  0  0  0  0  0  0  0  0
 18 19  2  0  0  0
 19 20  1  0  0  0
 20 21  2  0  0  0
 21 22  1  0  0  0
 22 23  2  0  0  0
 18 23  1  0  0  0
 23  1  1  0  0  0
  1  2  2  0  0  0
  2  3  1  0  0  0
  3  4  2  0  0  0
  3  5  1  0  0  0
  5  6  2  0  0  0
  6  7  1  0  0  0
  7  8  2  0  0  0
  8  9  1  0  0  0
  9 10  2  0  0  0
  5 10  1  0  0  0
 10 11  1  0  0  0
  1 11  1  0  0  0
  8 12  1  0  0  0
  6 13  1  0  0  0
  2 14  1  0  0  0
 21 24  1  0  0  0
 20 25  1  0  0  0
 12 15  1  0  0  0
 13 16  1  0  0  0
 14 17  1  0  0  0
 24 26  1  0  0  0
 25 27  1  0  0  0
M  END
> <minimizedAffinity>
-7.41952

$$$$
Quercetin


 27 29  0  0  0  0  0  0  0  0999 V2000
    1.6644   24.4495    9.6505 C   0  0  0  0  0  0  0  0  0  0  0  0
    1.8892   23.9339   10.8763 C   0  0  0  0  0  0  0  0  0  0  0  0
    1.0238   24.3976   11.9943 C   0  0  0  0  0  0  0  0  0  0  0  0
    1.1330   23.9784   13.1443 O   0  0  0  0  0  0  0  0  0  0  0  0
    0.0002   25.4005   11.6786 C   0  0  0  0  0  0  0  0  0  0  0  0
   -0.8694   25.8933   12.6594 C   0  0  0  0  0  0  0  0  0  0  0  0
   -1.8301   26.8475   12.3339 C   0  0  0  0  0  0  0  0  0  0  0  0
   -1.9120   27.3054   11.0222 C   0  0  0  0  0  0  0  0  0  0  0  0
   -1.0534   26.8223   10.0380 C   0  0  0  0  0  0  0  0  0  0  0  0
   -0.0961   25.8633   10.3696 C   0  0  0  0  0  0  0  0  0  0  0  0
    0.7141   25.4141    9.3589 O   0  0  0  0  0  0  0  0  0  0  0  0
   -2.8354   28.2392   10.6553 O   0  0  0  0  0  0  0  0  0  0  0  0
   -0.8338   25.4790   13.9642 O   0  0  0  0  0  0  0  0  0  0  0  0
    2.8694   23.0032   11.1735 O   0  0  0  0  0  0  0  0  0  0  0  0
   -3.3618   28.4832   11.4358 H   0  0  0  0  0  0  0  0  0  0  0  0
   -0.1114   24.8147   14.0544 H   0  0  0  0  0  0  0  0  0  0  0  0
    3.4685   22.9163   10.4132 H   0  0  0  0  0  0  0  0  0  0  0  0
    3.6232   24.6804    8.1141 C   0  0  0  0  0  0  0  0  0  0  0  0
    4.3367   24.3059    6.9710 C   0  0  0  0  0  0  0  0  0  0  0  0
    3.8556   23.2664    6.1865 C   0  0  0  0  0  0  0  0  0  0  0  0
    2.6842   22.6010    6.5410 C   0  0  0  0  0  0  0  0  0  0  0  0
    1.9683   22.9653    7.6739 C   0  0  0  0  0  0  0  0  0  0  0  0
    2.4291   24.0234    8.4663 C   0  0  0  0  0  0  0  0  0  0  0  0
    2.2215   21.5781    5.7636 O   0  0  0  0  0  0  0  0  0  0  0  0
    4.4983   22.8600    5.0509 O   0  0  0  0  0  0  0  0  0  0  0  0
    2.8772   21.4979    5.0421 H   0  0  0  0  0  0  0  0  0  0  0  0
    5.2883   23.4149    4.9298 H   0  0  0  0  0  0  0  0  0  0  0  0
 18 19  2  0  0  0
 19 20  1  0  0  0
 20 21  2  0  0  0
 21 22  1  0  0  0
 22 23  2  0  0  0
 18 23  1  0  0  0
 23  1  1  0  0  0
  1  2  2  0  0  0
  2  3  1  0  0  0
  3  4  2  0  0  0
  3  5  1  0  0  0
  5  6  2  0  0  0
  6  7  1  0  0  0
  7  8  2  0  0  0
  8  9  1  0  0  0
  9 10  2  0  0  0
  5 10  1  0  0  0
 10 11  1  0  0  0
  1 11  1  0  0  0
  8 12  1  0  0  0
  6 13  1  0  0  0
  2 14  1  0  0  0
 21 24  1  0  0  0
 20 25  1  0  0  0
 12 15  1  0  0  0
 13 16  1  0  0  0
 14 17  1  0  0  0
 24 26  1  0  0  0
 25 27  1  0  0  0
M  END
> <minimizedAffinity>
-7.31773

$$$$
