Quercetin


 27 29  0  0  0  0  0  0  0  0999 V2000
  -12.4235   15.7069    6.0939 C   0  0  0  0  0  0  0  0  0  0  0  0
  -12.8729   14.5263    5.6214 C   0  0  0  0  0  0  0  0  0  0  0  0
  -11.8659   13.5401    5.1450 C   0  0  0  0  0  0  0  0  0  0  0  0
  -12.1675   12.4299    4.7129 O   0  0  0  0  0  0  0  0  0  0  0  0
  -10.4550   13.9384    5.2080 C   0  0  0  0  0  0  0  0  0  0  0  0
   -9.4316   13.0779    4.7920 C   0  0  0  0  0  0  0  0  0  0  0  0
   -8.1006   13.4819    4.8592 C   0  0  0  0  0  0  0  0  0  0  0  0
   -7.8026   14.7524    5.3428 C   0  0  0  0  0  0  0  0  0  0  0  0
   -8.8114   15.6169    5.7601 C   0  0  0  0  0  0  0  0  0  0  0  0
  -10.1425   15.2044    5.6944 C   0  0  0  0  0  0  0  0  0  0  0  0
  -11.0933   16.0910    6.1299 O   0  0  0  0  0  0  0  0  0  0  0  0
   -6.5150   15.1932    5.4270 O   0  0  0  0  0  0  0  0  0  0  0  0
   -9.6667   11.8184    4.3082 O   0  0  0  0  0  0  0  0  0  0  0  0
  -14.2061   14.1627    5.5448 O   0  0  0  0  0  0  0  0  0  0  0  0
   -5.9220   14.4926    5.1053 H   0  0  0  0  0  0  0  0  0  0  0  0
  -10.6405   11.6671    4.3101 H   0  0  0  0  0  0  0  0  0  0  0  0
  -14.7602   14.9425    5.7161 H   0  0  0  0  0  0  0  0  0  0  0  0
  -13.7101   16.7054    7.9907 C   0  0  0  0  0  0  0  0  0  0  0  0
  -14.5991   17.6547    8.5051 C   0  0  0  0  0  0  0  0  0  0  0  0
  -15.1000   18.6364    7.6606 C   0  0  0  0  0  0  0  0  0  0  0  0
  -14.7128   18.6788    6.3232 C   0  0  0  0  0  0  0  0  0  0  0  0
  -13.8308   17.7408    5.8027 C   0  0  0  0  0  0  0  0  0  0  0  0
  -13.3303   16.7331    6.6356 C   0  0  0  0  0  0  0  0  0  0  0  0
  -15.2095   19.6504    5.5021 O   0  0  0  0  0  0  0  0  0  0  0  0
  -15.9813   19.5853    8.0974 O   0  0  0  0  0  0  0  0  0  0  0  0
  -15.7911   20.1879    6.0765 H   0  0  0  0  0  0  0  0  0  0  0  0
  -16.1613   19.4265    9.0403 H   0  0  0  0  0  0  0  0  0  0  0  0
 18 19  2  0  0  0
 19 20  1  0  0  0
 20 21  2  0  0  0
 21 22  1  0  0  0
 22 23  2  0  0  0
 18 23  1  0  0  0
 23  1  1  0  0  0
  1  2  2  0  0  0
  2  3  1  0  0  0
  3  4  2  0  0  0
  3  5  1  0  0  0
  5  6  2  0  0  0
  6  7  1  0  0  0
  7  8  2  0  0  0
  8  9  1  0  0  0
  9 10  2  0  0  0
  5 10  1  0  0  0
 10 11  1  0  0  0
  1 11  1  0  0  0
  8 12  1  0  0  0
  6 13  1  0  0  0
  2 14  1  0  0  0
 21 24  1  0  0  0
 20 25  1  0  0  0
 12 15  1  0  0  0
 13 16  1  0  0  0
 14 17  1  0  0  0
 24 26  1  0  0  0
 25 27  1  0  0  0
M  END
> <minimizedAffinity>
-7.95464

$$$$
Quercetin


 27 29  0  0  0  0  0  0  0  0999 V2000
  -11.0267   18.2214    2.8800 C   0  0  0  0  0  0  0  0  0  0  0  0
   -9.7428   18.3435    3.2743 C   0  0  0  0  0  0  0  0  0  0  0  0
   -9.2653   17.4572    4.3698 C   0  0  0  0  0  0  0  0  0  0  0  0
   -8.1111   17.4751    4.7913 O   0  0  0  0  0  0  0  0  0  0  0  0
  -10.2394   16.5275    4.9532 C   0  0  0  0  0  0  0  0  0  0  0  0
   -9.8855   15.6463    5.9823 C   0  0  0  0  0  0  0  0  0  0  0  0
  -10.8302   14.7763    6.5207 C   0  0  0  0  0  0  0  0  0  0  0  0
  -12.1300   14.7968    6.0237 C   0  0  0  0  0  0  0  0  0  0  0  0
  -12.4938   15.6680    5.0000 C   0  0  0  0  0  0  0  0  0  0  0  0
  -11.5415   16.5339    4.4619 C   0  0  0  0  0  0  0  0  0  0  0  0
  -11.9514   17.3608    3.4480 O   0  0  0  0  0  0  0  0  0  0  0  0
  -13.0899   13.9647    6.5190 O   0  0  0  0  0  0  0  0  0  0  0  0
   -8.6230   15.5833    6.5092 O   0  0  0  0  0  0  0  0  0  0  0  0
   -8.8329   19.2361    2.7350 O   0  0  0  0  0  0  0  0  0  0  0  0
  -12.6986   13.4175    7.2214 H   0  0  0  0  0  0  0  0  0  0  0  0
   -8.0644   16.2495    6.0449 H   0  0  0  0  0  0  0  0  0  0  0  0
   -9.3035   19.8661    2.1640 H   0  0  0  0  0  0  0  0  0  0  0  0
  -11.1601   18.7925    0.4496 C   0  0  0  0  0  0  0  0  0  0  0  0
  -11.6606   19.5647   -0.6036 C   0  0  0  0  0  0  0  0  0  0  0  0
  -12.5962   20.5532   -0.3294 C   0  0  0  0  0  0  0  0  0  0  0  0
  -13.0359   20.7635    0.9756 C   0  0  0  0  0  0  0  0  0  0  0  0
  -12.5449   20.0023    2.0284 C   0  0  0  0  0  0  0  0  0  0  0  0
  -11.5875   19.0137    1.7725 C   0  0  0  0  0  0  0  0  0  0  0  0
  -13.9584   21.7368    1.2335 O   0  0  0  0  0  0  0  0  0  0  0  0
  -13.1151   21.3501   -1.3110 O   0  0  0  0  0  0  0  0  0  0  0  0
  -14.1583   22.1279    0.3594 H   0  0  0  0  0  0  0  0  0  0  0  0
  -12.7139   21.0931   -2.1593 H   0  0  0  0  0  0  0  0  0  0  0  0
 18 19  2  0  0  0
 19 20  1  0  0  0
 20 21  2  0  0  0
 21 22  1  0  0  0
 22 23  2  0  0  0
 18 23  1  0  0  0
 23  1  1  0  0  0
  1  2  2  0  0  0
  2  3  1  0  0  0
  3  4  2  0  0  0
  3  5  1  0  0  0
  5  6  2  0  0  0
  6  7  1  0  0  0
  7  8  2  0  0  0
  8  9  1  0  0  0
  9 10  2  0  0  0
  5 10  1  0  0  0
 10 11  1  0  0  0
  1 11  1  0  0  0
  8 12  1  0  0  0
  6 13  1  0  0  0
  2 14  1  0  0  0
 21 24  1  0  0  0
 20 25  1  0  0  0
 12 15  1  0  0  0
 13 16  1  0  0  0
 14 17  1  0  0  0
 24 26  1  0  0  0
 25 27  1  0  0  0
M  END
> <minimizedAffinity>
-7.62549

$$$$
Quercetin


 27 29  0  0  0  0  0  0  0  0999 V2000
  -10.7237   16.4723    4.1044 C   0  0  0  0  0  0  0  0  0  0  0  0
  -11.0306   16.1247    5.3708 C   0  0  0  0  0  0  0  0  0  0  0  0
  -10.2793   14.9955    5.9827 C   0  0  0  0  0  0  0  0  0  0  0  0
  -10.4683   14.6110    7.1344 O   0  0  0  0  0  0  0  0  0  0  0  0
   -9.2708   14.3311    5.1491 C   0  0  0  0  0  0  0  0  0  0  0  0
   -8.5050   13.2648    5.6363 C   0  0  0  0  0  0  0  0  0  0  0  0
   -7.5565   12.6494    4.8232 C   0  0  0  0  0  0  0  0  0  0  0  0
   -7.3826   13.1071    3.5204 C   0  0  0  0  0  0  0  0  0  0  0  0
   -8.1376   14.1671    3.0249 C   0  0  0  0  0  0  0  0  0  0  0  0
   -9.0831   14.7822    3.8460 C   0  0  0  0  0  0  0  0  0  0  0  0
   -9.7889   15.8285    3.3106 O   0  0  0  0  0  0  0  0  0  0  0  0
   -6.4672   12.5365    2.6865 O   0  0  0  0  0  0  0  0  0  0  0  0
   -8.6338   12.7737    6.9082 O   0  0  0  0  0  0  0  0  0  0  0  0
  -11.9970   16.7411    6.1464 O   0  0  0  0  0  0  0  0  0  0  0  0
   -6.0171   11.8164    3.1605 H   0  0  0  0  0  0  0  0  0  0  0  0
   -9.3361   13.2918    7.3661 H   0  0  0  0  0  0  0  0  0  0  0  0
  -12.5269   17.3324    5.5862 H   0  0  0  0  0  0  0  0  0  0  0  0
  -10.5941   18.6273    2.8436 C   0  0  0  0  0  0  0  0  0  0  0  0
  -11.2006   19.7253    2.2249 C   0  0  0  0  0  0  0  0  0  0  0  0
  -12.5867   19.7928    2.1797 C   0  0  0  0  0  0  0  0  0  0  0  0
  -13.3593   18.7750    2.7343 C   0  0  0  0  0  0  0  0  0  0  0  0
  -12.7668   17.6807    3.3510 C   0  0  0  0  0  0  0  0  0  0  0  0
  -11.3707   17.6055    3.4217 C   0  0  0  0  0  0  0  0  0  0  0  0
  -14.7218   18.8503    2.6819 O   0  0  0  0  0  0  0  0  0  0  0  0
  -13.2410   20.8440    1.6013 O   0  0  0  0  0  0  0  0  0  0  0  0
  -14.9066   19.6849    2.2061 H   0  0  0  0  0  0  0  0  0  0  0  0
  -12.5776   21.4722    1.2668 H   0  0  0  0  0  0  0  0  0  0  0  0
 18 19  2  0  0  0
 19 20  1  0  0  0
 20 21  2  0  0  0
 21 22  1  0  0  0
 22 23  2  0  0  0
 18 23  1  0  0  0
 23  1  1  0  0  0
  1  2  2  0  0  0
  2  3  1  0  0  0
  3  4  2  0  0  0
  3  5  1  0  0  0
  5  6  2  0  0  0
  6  7  1  0  0  0
  7  8  2  0  0  0
  8  9  1  0  0  0
  9 10  2  0  0  0
  5 10  1  0  0  0
 10 11  1  0  0  0
  1 11  1  0  0  0
  8 12  1  0  0  0
  6 13  1  0  0  0
  2 14  1  0  0  0
 21 24  1  0  0  0
 20 25  1  0  0  0
 12 15  1  0  0  0
 13 16  1  0  0  0
 14 17  1  0  0  0
 24 26  1  0  0  0
 25 27  1  0  0  0
M  END
> <minimizedAffinity>
-7.39111

$$$$
Quercetin


 27 29  0  0  0  0  0  0  0  0999 V2000
   -9.7499   14.6701    5.0713 C   0  0  0  0  0  0  0  0  0  0  0  0
   -9.2746   15.8218    5.5877 C   0  0  0  0  0  0  0  0  0  0  0  0
   -7.8019   16.0335    5.5741 C   0  0  0  0  0  0  0  0  0  0  0  0
   -7.2677   17.0538    6.0028 O   0  0  0  0  0  0  0  0  0  0  0  0
   -6.9748   14.9581    5.0150 C   0  0  0  0  0  0  0  0  0  0  0  0
   -5.5802   15.0657    4.9490 C   0  0  0  0  0  0  0  0  0  0  0  0
   -4.8181   14.0288    4.4165 C   0  0  0  0  0  0  0  0  0  0  0  0
   -5.4614   12.8847    3.9537 C   0  0  0  0  0  0  0  0  0  0  0  0
   -6.8476   12.7664    4.0132 C   0  0  0  0  0  0  0  0  0  0  0  0
   -7.6056   13.8105    4.5438 C   0  0  0  0  0  0  0  0  0  0  0  0
   -8.9665   13.6456    4.5664 O   0  0  0  0  0  0  0  0  0  0  0  0
   -4.7584   11.8430    3.4246 O   0  0  0  0  0  0  0  0  0  0  0  0
   -4.8952   16.1668    5.3892 O   0  0  0  0  0  0  0  0  0  0  0  0
  -10.0572   16.8248    6.1327 O   0  0  0  0  0  0  0  0  0  0  0  0
   -3.8109   12.0613    3.4456 H   0  0  0  0  0  0  0  0  0  0  0  0
   -5.5501   16.8131    5.7425 H   0  0  0  0  0  0  0  0  0  0  0  0
  -10.9656   16.4973    6.2419 H   0  0  0  0  0  0  0  0  0  0  0  0
  -12.1132   15.4160    4.7416 C   0  0  0  0  0  0  0  0  0  0  0  0
  -13.4870   15.1568    4.6984 C   0  0  0  0  0  0  0  0  0  0  0  0
  -13.9343   13.8574    4.8964 C   0  0  0  0  0  0  0  0  0  0  0  0
  -13.0250   12.8270    5.1241 C   0  0  0  0  0  0  0  0  0  0  0  0
  -11.6590   13.0740    5.1691 C   0  0  0  0  0  0  0  0  0  0  0  0
  -11.1917   14.3813    4.9899 C   0  0  0  0  0  0  0  0  0  0  0  0
  -13.4758   11.5522    5.3148 O   0  0  0  0  0  0  0  0  0  0  0  0
  -15.2634   13.5396    4.8789 O   0  0  0  0  0  0  0  0  0  0  0  0
  -14.4486   11.6179    5.2346 H   0  0  0  0  0  0  0  0  0  0  0  0
  -15.7717   14.3533    4.7168 H   0  0  0  0  0  0  0  0  0  0  0  0
 18 19  2  0  0  0
 19 20  1  0  0  0
 20 21  2  0  0  0
 21 22  1  0  0  0
 22 23  2  0  0  0
 18 23  1  0  0  0
 23  1  1  0  0  0
  1  2  2  0  0  0
  2  3  1  0  0  0
  3  4  2  0  0  0
  3  5  1  0  0  0
  5  6  2  0  0  0
  6  7  1  0  0  0
  7  8  2  0  0  0
  8  9  1  0  0  0
  9 10  2  0  0  0
  5 10  1  0  0  0
 10 11  1  0  0  0
  1 11  1  0  0  0
  8 12  1  0  0  0
  6 13  1  0  0  0
  2 14  1  0  0  0
 21 24  1  0  0  0
 20 25  1  0  0  0
 12 15  1  0  0  0
 13 16  1  0  0  0
 14 17  1  0  0  0
 24 26  1  0  0  0
 25 27  1  0  0  0
M  END
> <minimizedAffinity>
-7.32360

$$$$
Quercetin


 27 29  0  0  0  0  0  0  0  0999 V2000
   -9.9365   14.7017    5.1376 C   0  0  0  0  0  0  0  0  0  0  0  0
  -10.3497   15.6539    4.2764 C   0  0  0  0  0  0  0  0  0  0  0  0
  -11.5483   16.4533    4.6478 C   0  0  0  0  0  0  0  0  0  0  0  0
  -11.9964   17.3554    3.9438 O   0  0  0  0  0  0  0  0  0  0  0  0
  -12.2034   16.1286    5.9201 C   0  0  0  0  0  0  0  0  0  0  0  0
  -13.3321   16.8293    6.3626 C   0  0  0  0  0  0  0  0  0  0  0  0
  -13.9368   16.4988    7.5727 C   0  0  0  0  0  0  0  0  0  0  0  0
  -13.4055   15.4618    8.3339 C   0  0  0  0  0  0  0  0  0  0  0  0
  -12.2830   14.7582    7.9048 C   0  0  0  0  0  0  0  0  0  0  0  0
  -11.6793   15.0972    6.6936 C   0  0  0  0  0  0  0  0  0  0  0  0
  -10.5701   14.3798    6.3264 O   0  0  0  0  0  0  0  0  0  0  0  0
  -13.9628   15.1012    9.5249 O   0  0  0  0  0  0  0  0  0  0  0  0
  -13.8967   17.8571    5.6553 O   0  0  0  0  0  0  0  0  0  0  0  0
   -9.7407   15.9430    3.0677 O   0  0  0  0  0  0  0  0  0  0  0  0
  -14.7312   15.6718    9.6972 H   0  0  0  0  0  0  0  0  0  0  0  0
  -13.3776   17.9792    4.8265 H   0  0  0  0  0  0  0  0  0  0  0  0
   -9.0916   15.2494    2.8631 H   0  0  0  0  0  0  0  0  0  0  0  0
   -8.8490   12.5150    4.6024 C   0  0  0  0  0  0  0  0  0  0  0  0
   -7.7108   11.7270    4.4030 C   0  0  0  0  0  0  0  0  0  0  0  0
   -6.4578   12.3195    4.4859 C   0  0  0  0  0  0  0  0  0  0  0  0
   -6.3396   13.6814    4.7535 C   0  0  0  0  0  0  0  0  0  0  0  0
   -7.4635   14.4724    4.9533 C   0  0  0  0  0  0  0  0  0  0  0  0
   -8.7340   13.8878    4.8915 C   0  0  0  0  0  0  0  0  0  0  0  0
   -5.1023   14.2543    4.8301 O   0  0  0  0  0  0  0  0  0  0  0  0
   -5.3065   11.6035    4.3136 O   0  0  0  0  0  0  0  0  0  0  0  0
   -4.4780   13.5224    4.6524 H   0  0  0  0  0  0  0  0  0  0  0  0
   -5.5445   10.6759    4.1417 H   0  0  0  0  0  0  0  0  0  0  0  0
 18 19  2  0  0  0
 19 20  1  0  0  0
 20 21  2  0  0  0
 21 22  1  0  0  0
 22 23  2  0  0  0
 18 23  1  0  0  0
 23  1  1  0  0  0
  1  2  2  0  0  0
  2  3  1  0  0  0
  3  4  2  0  0  0
  3  5  1  0  0  0
  5  6  2  0  0  0
  6  7  1  0  0  0
  7  8  2  0  0  0
  8  9  1  0  0  0
  9 10  2  0  0  0
  5 10  1  0  0  0
 10 11  1  0  0  0
  1 11  1  0  0  0
  8 12  1  0  0  0
  6 13  1  0  0  0
  2 14  1  0  0  0
 21 24  1  0  0  0
 20 25  1  0  0  0
 12 15  1  0  0  0
 13 16  1  0  0  0
 14 17  1  0  0  0
 24 26  1  0  0  0
 25 27  1  0  0  0
M  END
> <minimizedAffinity>
-7.31298

$$$$
