Quercetin


 27 29  0  0  0  0  0  0  0  0999 V2000
  -29.1425  -13.4847   21.0602 C   0  0  0  0  0  0  0  0  0  0  0  0
  -29.3970  -12.7447   19.9617 C   0  0  0  0  0  0  0  0  0  0  0  0
  -30.5323  -11.7847   20.0187 C   0  0  0  0  0  0  0  0  0  0  0  0
  -30.8375  -11.0515   19.0809 O   0  0  0  0  0  0  0  0  0  0  0  0
  -31.3038  -11.7315   21.2658 C   0  0  0  0  0  0  0  0  0  0  0  0
  -32.3846  -10.8549   21.4216 C   0  0  0  0  0  0  0  0  0  0  0  0
  -33.1023  -10.8266   22.6147 C   0  0  0  0  0  0  0  0  0  0  0  0
  -32.7321  -11.6827   23.6477 C   0  0  0  0  0  0  0  0  0  0  0  0
  -31.6587  -12.5583   23.5050 C   0  0  0  0  0  0  0  0  0  0  0  0
  -30.9410  -12.5785   22.3088 C   0  0  0  0  0  0  0  0  0  0  0  0
  -29.8866  -13.4510   22.2279 O   0  0  0  0  0  0  0  0  0  0  0  0
  -33.4045  -11.6920   24.8339 O   0  0  0  0  0  0  0  0  0  0  0  0
  -32.7926   -9.9918   20.4398 O   0  0  0  0  0  0  0  0  0  0  0  0
  -28.6793  -12.8129   18.7803 O   0  0  0  0  0  0  0  0  0  0  0  0
  -34.1219  -11.0367   24.7929 H   0  0  0  0  0  0  0  0  0  0  0  0
  -32.2073  -10.1202   19.6573 H   0  0  0  0  0  0  0  0  0  0  0  0
  -28.0903  -13.5854   18.8085 H   0  0  0  0  0  0  0  0  0  0  0  0
  -26.8164  -14.0620   21.7719 C   0  0  0  0  0  0  0  0  0  0  0  0
  -25.7266  -14.9378   21.8098 C   0  0  0  0  0  0  0  0  0  0  0  0
  -25.8420  -16.1839   21.2084 C   0  0  0  0  0  0  0  0  0  0  0  0
  -27.0309  -16.5576   20.5861 C   0  0  0  0  0  0  0  0  0  0  0  0
  -28.1187  -15.6952   20.5428 C   0  0  0  0  0  0  0  0  0  0  0  0
  -28.0135  -14.4279   21.1281 C   0  0  0  0  0  0  0  0  0  0  0  0
  -27.1344  -17.7867   20.0000 O   0  0  0  0  0  0  0  0  0  0  0  0
  -24.8109  -17.0808   21.1994 O   0  0  0  0  0  0  0  0  0  0  0  0
  -26.2675  -18.2115   20.1585 H   0  0  0  0  0  0  0  0  0  0  0  0
  -24.0529  -16.6821   21.6611 H   0  0  0  0  0  0  0  0  0  0  0  0
 18 19  2  0  0  0
 19 20  1  0  0  0
 20 21  2  0  0  0
 21 22  1  0  0  0
 22 23  2  0  0  0
 18 23  1  0  0  0
 23  1  1  0  0  0
  1  2  2  0  0  0
  2  3  1  0  0  0
  3  4  2  0  0  0
  3  5  1  0  0  0
  5  6  2  0  0  0
  6  7  1  0  0  0
  7  8  2  0  0  0
  8  9  1  0  0  0
  9 10  2  0  0  0
  5 10  1  0  0  0
 10 11  1  0  0  0
  1 11  1  0  0  0
  8 12  1  0  0  0
  6 13  1  0  0  0
  2 14  1  0  0  0
 21 24  1  0  0  0
 20 25  1  0  0  0
 12 15  1  0  0  0
 13 16  1  0  0  0
 14 17  1  0  0  0
 24 26  1  0  0  0
 25 27  1  0  0  0
M  END
> <minimizedAffinity>
-6.64708

$$$$
Quercetin


 27 29  0  0  0  0  0  0  0  0999 V2000
  -32.2490  -11.6001   23.1971 C   0  0  0  0  0  0  0  0  0  0  0  0
  -32.4025  -11.1122   21.9492 C   0  0  0  0  0  0  0  0  0  0  0  0
  -31.3752  -11.4675   20.9332 C   0  0  0  0  0  0  0  0  0  0  0  0
  -31.4301  -11.0908   19.7648 O   0  0  0  0  0  0  0  0  0  0  0  0
  -30.2578  -12.3097   21.3753 C   0  0  0  0  0  0  0  0  0  0  0  0
  -29.2455  -12.7060   20.4927 C   0  0  0  0  0  0  0  0  0  0  0  0
  -28.1942  -13.5030   20.9387 C   0  0  0  0  0  0  0  0  0  0  0  0
  -28.1627  -13.8973   22.2731 C   0  0  0  0  0  0  0  0  0  0  0  0
  -29.1640  -13.5102   23.1601 C   0  0  0  0  0  0  0  0  0  0  0  0
  -30.2168  -12.7155   22.7059 C   0  0  0  0  0  0  0  0  0  0  0  0
  -31.1810  -12.3746   23.6190 O   0  0  0  0  0  0  0  0  0  0  0  0
  -27.1540  -14.6768   22.7567 O   0  0  0  0  0  0  0  0  0  0  0  0
  -29.2257  -12.3478   19.1710 O   0  0  0  0  0  0  0  0  0  0  0  0
  -33.4474  -10.3013   21.5418 O   0  0  0  0  0  0  0  0  0  0  0  0
  -26.5323  -14.8692   22.0340 H   0  0  0  0  0  0  0  0  0  0  0  0
  -30.0162  -11.7862   18.9947 H   0  0  0  0  0  0  0  0  0  0  0  0
  -33.9434  -10.0030   22.3224 H   0  0  0  0  0  0  0  0  0  0  0  0
  -34.4856  -11.9918   24.2435 C   0  0  0  0  0  0  0  0  0  0  0  0
  -35.4390  -11.7338   25.2337 C   0  0  0  0  0  0  0  0  0  0  0  0
  -35.1307  -10.8389   26.2495 C   0  0  0  0  0  0  0  0  0  0  0  0
  -33.8850  -10.2165   26.2850 C   0  0  0  0  0  0  0  0  0  0  0  0
  -32.9315  -10.4658   25.3065 C   0  0  0  0  0  0  0  0  0  0  0  0
  -33.2323  -11.3512   24.2648 C   0  0  0  0  0  0  0  0  0  0  0  0
  -33.5913   -9.3401   27.2903 O   0  0  0  0  0  0  0  0  0  0  0  0
  -36.0219  -10.5339   27.2397 O   0  0  0  0  0  0  0  0  0  0  0  0
  -34.3920   -9.3289   27.8522 H   0  0  0  0  0  0  0  0  0  0  0  0
  -36.8407  -11.0348   27.0809 H   0  0  0  0  0  0  0  0  0  0  0  0
 18 19  2  0  0  0
 19 20  1  0  0  0
 20 21  2  0  0  0
 21 22  1  0  0  0
 22 23  2  0  0  0
 18 23  1  0  0  0
 23  1  1  0  0  0
  1  2  2  0  0  0
  2  3  1  0  0  0
  3  4  2  0  0  0
  3  5  1  0  0  0
  5  6  2  0  0  0
  6  7  1  0  0  0
  7  8  2  0  0  0
  8  9  1  0  0  0
  9 10  2  0  0  0
  5 10  1  0  0  0
 10 11  1  0  0  0
  1 11  1  0  0  0
  8 12  1  0  0  0
  6 13  1  0  0  0
  2 14  1  0  0  0
 21 24  1  0  0  0
 20 25  1  0  0  0
 12 15  1  0  0  0
 13 16  1  0  0  0
 14 17  1  0  0  0
 24 26  1  0  0  0
 25 27  1  0  0  0
M  END
> <minimizedAffinity>
-6.43543

$$$$
Quercetin


 27 29  0  0  0  0  0  0  0  0999 V2000
  -26.3548  -14.5841   21.5138 C   0  0  0  0  0  0  0  0  0  0  0  0
  -26.3820  -15.9055   21.2453 C   0  0  0  0  0  0  0  0  0  0  0  0
  -25.2211  -16.7271   21.6825 C   0  0  0  0  0  0  0  0  0  0  0  0
  -25.1541  -17.9410   21.5034 O   0  0  0  0  0  0  0  0  0  0  0  0
  -24.1215  -16.0287   22.3580 C   0  0  0  0  0  0  0  0  0  0  0  0
  -22.9895  -16.7145   22.8153 C   0  0  0  0  0  0  0  0  0  0  0  0
  -21.9583  -16.0271   23.4505 C   0  0  0  0  0  0  0  0  0  0  0  0
  -22.0677  -14.6503   23.6220 C   0  0  0  0  0  0  0  0  0  0  0  0
  -23.1888  -13.9574   23.1724 C   0  0  0  0  0  0  0  0  0  0  0  0
  -24.2204  -14.6526   22.5407 C   0  0  0  0  0  0  0  0  0  0  0  0
  -25.3054  -13.9223   22.1296 O   0  0  0  0  0  0  0  0  0  0  0  0
  -21.0843  -13.9337   24.2373 O   0  0  0  0  0  0  0  0  0  0  0  0
  -22.8288  -18.0671   22.6735 O   0  0  0  0  0  0  0  0  0  0  0  0
  -27.4123  -16.5567   20.5896 O   0  0  0  0  0  0  0  0  0  0  0  0
  -20.3698  -14.5404   24.4969 H   0  0  0  0  0  0  0  0  0  0  0  0
  -23.6214  -18.4218   22.2073 H   0  0  0  0  0  0  0  0  0  0  0  0
  -28.0148  -15.8971   20.2072 H   0  0  0  0  0  0  0  0  0  0  0  0
  -27.4424  -12.9346   19.9818 C   0  0  0  0  0  0  0  0  0  0  0  0
  -28.4827  -12.0552   19.6649 C   0  0  0  0  0  0  0  0  0  0  0  0
  -29.5569  -11.9396   20.5369 C   0  0  0  0  0  0  0  0  0  0  0  0
  -29.6000  -12.6978   21.7048 C   0  0  0  0  0  0  0  0  0  0  0  0
  -28.5721  -13.5737   22.0286 C   0  0  0  0  0  0  0  0  0  0  0  0
  -27.4726  -13.6891   21.1698 C   0  0  0  0  0  0  0  0  0  0  0  0
  -30.6627  -12.5782   22.5540 O   0  0  0  0  0  0  0  0  0  0  0  0
  -30.5989  -11.0899   20.2922 O   0  0  0  0  0  0  0  0  0  0  0  0
  -31.2511  -11.9245   22.1257 H   0  0  0  0  0  0  0  0  0  0  0  0
  -30.4282  -10.6283   19.4528 H   0  0  0  0  0  0  0  0  0  0  0  0
 18 19  2  0  0  0
 19 20  1  0  0  0
 20 21  2  0  0  0
 21 22  1  0  0  0
 22 23  2  0  0  0
 18 23  1  0  0  0
 23  1  1  0  0  0
  1  2  2  0  0  0
  2  3  1  0  0  0
  3  4  2  0  0  0
  3  5  1  0  0  0
  5  6  2  0  0  0
  6  7  1  0  0  0
  7  8  2  0  0  0
  8  9  1  0  0  0
  9 10  2  0  0  0
  5 10  1  0  0  0
 10 11  1  0  0  0
  1 11  1  0  0  0
  8 12  1  0  0  0
  6 13  1  0  0  0
  2 14  1  0  0  0
 21 24  1  0  0  0
 20 25  1  0  0  0
 12 15  1  0  0  0
 13 16  1  0  0  0
 14 17  1  0  0  0
 24 26  1  0  0  0
 25 27  1  0  0  0
M  END
> <minimizedAffinity>
-6.34324

$$$$
Quercetin


 27 29  0  0  0  0  0  0  0  0999 V2000
  -27.5807  -14.3917   21.3004 C   0  0  0  0  0  0  0  0  0  0  0  0
  -27.8714  -15.4051   20.4593 C   0  0  0  0  0  0  0  0  0  0  0  0
  -29.0501  -15.2490   19.5649 C   0  0  0  0  0  0  0  0  0  0  0  0
  -29.3908  -16.1035   18.7502 O   0  0  0  0  0  0  0  0  0  0  0  0
  -29.8210  -14.0059   19.6819 C   0  0  0  0  0  0  0  0  0  0  0  0
  -30.9412  -13.7602   18.8784 C   0  0  0  0  0  0  0  0  0  0  0  0
  -31.6573  -12.5733   19.0119 C   0  0  0  0  0  0  0  0  0  0  0  0
  -31.2457  -11.6371   19.9559 C   0  0  0  0  0  0  0  0  0  0  0  0
  -30.1330  -11.8696   20.7601 C   0  0  0  0  0  0  0  0  0  0  0  0
  -29.4173  -13.0587   20.6183 C   0  0  0  0  0  0  0  0  0  0  0  0
  -28.3234  -13.2295   21.4271 O   0  0  0  0  0  0  0  0  0  0  0  0
  -31.9148  -10.4609   20.1239 O   0  0  0  0  0  0  0  0  0  0  0  0
  -31.3907  -14.6450   17.9347 O   0  0  0  0  0  0  0  0  0  0  0  0
  -27.1534  -16.5846   20.3667 O   0  0  0  0  0  0  0  0  0  0  0  0
  -32.6620  -10.4336   19.5021 H   0  0  0  0  0  0  0  0  0  0  0  0
  -30.8015  -15.4348   17.9509 H   0  0  0  0  0  0  0  0  0  0  0  0
  -26.5290  -16.6377   21.1095 H   0  0  0  0  0  0  0  0  0  0  0  0
  -25.1338  -14.0764   21.7056 C   0  0  0  0  0  0  0  0  0  0  0  0
  -24.0098  -14.1369   22.5356 C   0  0  0  0  0  0  0  0  0  0  0  0
  -24.1676  -14.5364   23.8560 C   0  0  0  0  0  0  0  0  0  0  0  0
  -25.4301  -14.8615   24.3468 C   0  0  0  0  0  0  0  0  0  0  0  0
  -26.5524  -14.8048   23.5306 C   0  0  0  0  0  0  0  0  0  0  0  0
  -26.4088  -14.4218   22.1919 C   0  0  0  0  0  0  0  0  0  0  0  0
  -25.5743  -15.2506   25.6478 O   0  0  0  0  0  0  0  0  0  0  0  0
  -23.1088  -14.6284   24.7151 O   0  0  0  0  0  0  0  0  0  0  0  0
  -24.6709  -15.2095   26.0212 H   0  0  0  0  0  0  0  0  0  0  0  0
  -22.3006  -14.3789   24.2344 H   0  0  0  0  0  0  0  0  0  0  0  0
 18 19  2  0  0  0
 19 20  1  0  0  0
 20 21  2  0  0  0
 21 22  1  0  0  0
 22 23  2  0  0  0
 18 23  1  0  0  0
 23  1  1  0  0  0
  1  2  2  0  0  0
  2  3  1  0  0  0
  3  4  2  0  0  0
  3  5  1  0  0  0
  5  6  2  0  0  0
  6  7  1  0  0  0
  7  8  2  0  0  0
  8  9  1  0  0  0
  9 10  2  0  0  0
  5 10  1  0  0  0
 10 11  1  0  0  0
  1 11  1  0  0  0
  8 12  1  0  0  0
  6 13  1  0  0  0
  2 14  1  0  0  0
 21 24  1  0  0  0
 20 25  1  0  0  0
 12 15  1  0  0  0
 13 16  1  0  0  0
 14 17  1  0  0  0
 24 26  1  0  0  0
 25 27  1  0  0  0
M  END
> <minimizedAffinity>
-6.33201

$$$$
Quercetin


 27 29  0  0  0  0  0  0  0  0999 V2000
  -28.7264  -14.1991   20.6686 C   0  0  0  0  0  0  0  0  0  0  0  0
  -28.9055  -15.3667   20.0178 C   0  0  0  0  0  0  0  0  0  0  0  0
  -27.8390  -16.3975   20.1342 C   0  0  0  0  0  0  0  0  0  0  0  0
  -27.9113  -17.5001   19.5965 O   0  0  0  0  0  0  0  0  0  0  0  0
  -26.6591  -16.0543   20.9364 C   0  0  0  0  0  0  0  0  0  0  0  0
  -25.6056  -16.9595   21.1141 C   0  0  0  0  0  0  0  0  0  0  0  0
  -24.4956  -16.6075   21.8778 C   0  0  0  0  0  0  0  0  0  0  0  0
  -24.4472  -15.3439   22.4591 C   0  0  0  0  0  0  0  0  0  0  0  0
  -25.4889  -14.4353   22.2903 C   0  0  0  0  0  0  0  0  0  0  0  0
  -26.6002  -14.7958   21.5277 C   0  0  0  0  0  0  0  0  0  0  0  0
  -27.6014  -13.8672   21.4052 O   0  0  0  0  0  0  0  0  0  0  0  0
  -23.3815  -14.9532   23.2146 O   0  0  0  0  0  0  0  0  0  0  0  0
  -25.6000  -18.2145   20.5660 O   0  0  0  0  0  0  0  0  0  0  0  0
  -30.0109  -15.6784   19.2454 O   0  0  0  0  0  0  0  0  0  0  0  0
  -22.7366  -15.6804   23.2470 H   0  0  0  0  0  0  0  0  0  0  0  0
  -26.4334  -18.3274   20.0522 H   0  0  0  0  0  0  0  0  0  0  0  0
  -30.5403  -14.8754   19.1067 H   0  0  0  0  0  0  0  0  0  0  0  0
  -29.8607  -12.2698   19.5542 C   0  0  0  0  0  0  0  0  0  0  0  0
  -30.7968  -11.2307   19.5535 C   0  0  0  0  0  0  0  0  0  0  0  0
  -31.6177  -11.0621   20.6605 C   0  0  0  0  0  0  0  0  0  0  0  0
  -31.5152  -11.9235   21.7503 C   0  0  0  0  0  0  0  0  0  0  0  0
  -30.5889  -12.9582   21.7610 C   0  0  0  0  0  0  0  0  0  0  0  0
  -29.7407  -13.1314   20.6609 C   0  0  0  0  0  0  0  0  0  0  0  0
  -32.3295  -11.7502   22.8328 O   0  0  0  0  0  0  0  0  0  0  0  0
  -32.5439  -10.0594   20.7279 O   0  0  0  0  0  0  0  0  0  0  0  0
  -32.8905  -10.9828   22.6016 H   0  0  0  0  0  0  0  0  0  0  0  0
  -32.4960   -9.5412   19.9059 H   0  0  0  0  0  0  0  0  0  0  0  0
 18 19  2  0  0  0
 19 20  1  0  0  0
 20 21  2  0  0  0
 21 22  1  0  0  0
 22 23  2  0  0  0
 18 23  1  0  0  0
 23  1  1  0  0  0
  1  2  2  0  0  0
  2  3  1  0  0  0
  3  4  2  0  0  0
  3  5  1  0  0  0
  5  6  2  0  0  0
  6  7  1  0  0  0
  7  8  2  0  0  0
  8  9  1  0  0  0
  9 10  2  0  0  0
  5 10  1  0  0  0
 10 11  1  0  0  0
  1 11  1  0  0  0
  8 12  1  0  0  0
  6 13  1  0  0  0
  2 14  1  0  0  0
 21 24  1  0  0  0
 20 25  1  0  0  0
 12 15  1  0  0  0
 13 16  1  0  0  0
 14 17  1  0  0  0
 24 26  1  0  0  0
 25 27  1  0  0  0
M  END
> <minimizedAffinity>
-6.28197

$$$$
