Quercetin


 27 29  0  0  0  0  0  0  0  0999 V2000
  -31.5212   23.3919    5.9297 C   0  0  0  0  0  0  0  0  0  0  0  0
  -30.8550   23.5400    4.7664 C   0  0  0  0  0  0  0  0  0  0  0  0
  -29.3740   23.3999    4.7915 C   0  0  0  0  0  0  0  0  0  0  0  0
  -28.6745   23.4983    3.7860 O   0  0  0  0  0  0  0  0  0  0  0  0
  -28.7477   23.1297    6.0908 C   0  0  0  0  0  0  0  0  0  0  0  0
  -27.3620   22.9724    6.2174 C   0  0  0  0  0  0  0  0  0  0  0  0
  -26.7926   22.7198    7.4630 C   0  0  0  0  0  0  0  0  0  0  0  0
  -27.6191   22.6286    8.5790 C   0  0  0  0  0  0  0  0  0  0  0  0
  -28.9985   22.7824    8.4657 C   0  0  0  0  0  0  0  0  0  0  0  0
  -29.5631   23.0309    7.2143 C   0  0  0  0  0  0  0  0  0  0  0  0
  -30.9268   23.1613    7.1593 O   0  0  0  0  0  0  0  0  0  0  0  0
  -27.1084   22.3834    9.8193 O   0  0  0  0  0  0  0  0  0  0  0  0
  -26.5020   23.0521    5.1546 O   0  0  0  0  0  0  0  0  0  0  0  0
  -31.4481   23.8150    3.5466 O   0  0  0  0  0  0  0  0  0  0  0  0
  -26.1421   22.2986    9.7494 H   0  0  0  0  0  0  0  0  0  0  0  0
  -27.0328   23.2382    4.3453 H   0  0  0  0  0  0  0  0  0  0  0  0
  -32.3791   24.0537    3.6907 H   0  0  0  0  0  0  0  0  0  0  0  0
  -33.7756   22.3399    5.6813 C   0  0  0  0  0  0  0  0  0  0  0  0
  -35.1721   22.4077    5.7185 C   0  0  0  0  0  0  0  0  0  0  0  0
  -35.7793   23.5991    6.0920 C   0  0  0  0  0  0  0  0  0  0  0  0
  -35.0061   24.7061    6.4344 C   0  0  0  0  0  0  0  0  0  0  0  0
  -33.6189   24.6491    6.4005 C   0  0  0  0  0  0  0  0  0  0  0  0
  -32.9902   23.4613    6.0084 C   0  0  0  0  0  0  0  0  0  0  0  0
  -35.6139   25.8721    6.8030 O   0  0  0  0  0  0  0  0  0  0  0  0
  -37.1385   23.7350    6.1368 O   0  0  0  0  0  0  0  0  0  0  0  0
  -36.5717   25.6775    6.7606 H   0  0  0  0  0  0  0  0  0  0  0  0
  -37.5406   22.8906    5.8688 H   0  0  0  0  0  0  0  0  0  0  0  0
 18 19  2  0  0  0
 19 20  1  0  0  0
 20 21  2  0  0  0
 21 22  1  0  0  0
 22 23  2  0  0  0
 18 23  1  0  0  0
 23  1  1  0  0  0
  1  2  2  0  0  0
  2  3  1  0  0  0
  3  4  2  0  0  0
  3  5  1  0  0  0
  5  6  2  0  0  0
  6  7  1  0  0  0
  7  8  2  0  0  0
  8  9  1  0  0  0
  9 10  2  0  0  0
  5 10  1  0  0  0
 10 11  1  0  0  0
  1 11  1  0  0  0
  8 12  1  0  0  0
  6 13  1  0  0  0
  2 14  1  0  0  0
 21 24  1  0  0  0
 20 25  1  0  0  0
 12 15  1  0  0  0
 13 16  1  0  0  0
 14 17  1  0  0  0
 24 26  1  0  0  0
 25 27  1  0  0  0
M  END
> <minimizedAffinity>
-7.38417

$$$$
Quercetin


 27 29  0  0  0  0  0  0  0  0999 V2000
  -32.0181   24.5640    4.9623 C   0  0  0  0  0  0  0  0  0  0  0  0
  -31.5432   24.3552    3.7174 C   0  0  0  0  0  0  0  0  0  0  0  0
  -30.2223   23.6841    3.5813 C   0  0  0  0  0  0  0  0  0  0  0  0
  -29.7083   23.4309    2.4942 O   0  0  0  0  0  0  0  0  0  0  0  0
  -29.5256   23.3173    4.8195 C   0  0  0  0  0  0  0  0  0  0  0  0
  -28.2820   22.6740    4.7972 C   0  0  0  0  0  0  0  0  0  0  0  0
  -27.6404   22.3397    5.9872 C   0  0  0  0  0  0  0  0  0  0  0  0
  -28.2509   22.6558    7.1973 C   0  0  0  0  0  0  0  0  0  0  0  0
  -29.4877   23.2947    7.2323 C   0  0  0  0  0  0  0  0  0  0  0  0
  -30.1273   23.6229    6.0367 C   0  0  0  0  0  0  0  0  0  0  0  0
  -31.3483   24.2394    6.1304 O   0  0  0  0  0  0  0  0  0  0  0  0
  -27.6617   22.3494    8.3881 O   0  0  0  0  0  0  0  0  0  0  0  0
  -27.6358   22.3396    3.6370 O   0  0  0  0  0  0  0  0  0  0  0  0
  -32.1946   24.7214    2.5524 O   0  0  0  0  0  0  0  0  0  0  0  0
  -26.8117   21.9100    8.2136 H   0  0  0  0  0  0  0  0  0  0  0  0
  -28.1932   22.6362    2.8803 H   0  0  0  0  0  0  0  0  0  0  0  0
  -32.9459   25.2966    2.7738 H   0  0  0  0  0  0  0  0  0  0  0  0
  -34.4476   24.3690    5.5189 C   0  0  0  0  0  0  0  0  0  0  0  0
  -35.7099   24.9369    5.7190 C   0  0  0  0  0  0  0  0  0  0  0  0
  -35.8535   26.3141    5.6159 C   0  0  0  0  0  0  0  0  0  0  0  0
  -34.7522   27.1169    5.3275 C   0  0  0  0  0  0  0  0  0  0  0  0
  -33.4947   26.5627    5.1268 C   0  0  0  0  0  0  0  0  0  0  0  0
  -33.3355   25.1743    5.2089 C   0  0  0  0  0  0  0  0  0  0  0  0
  -34.9043   28.4705    5.2311 O   0  0  0  0  0  0  0  0  0  0  0  0
  -37.0613   26.9301    5.7878 O   0  0  0  0  0  0  0  0  0  0  0  0
  -35.8525   28.6278    5.4134 H   0  0  0  0  0  0  0  0  0  0  0  0
  -37.7298   26.2485    5.9753 H   0  0  0  0  0  0  0  0  0  0  0  0
 18 19  2  0  0  0
 19 20  1  0  0  0
 20 21  2  0  0  0
 21 22  1  0  0  0
 22 23  2  0  0  0
 18 23  1  0  0  0
 23  1  1  0  0  0
  1  2  2  0  0  0
  2  3  1  0  0  0
  3  4  2  0  0  0
  3  5  1  0  0  0
  5  6  2  0  0  0
  6  7  1  0  0  0
  7  8  2  0  0  0
  8  9  1  0  0  0
  9 10  2  0  0  0
  5 10  1  0  0  0
 10 11  1  0  0  0
  1 11  1  0  0  0
  8 12  1  0  0  0
  6 13  1  0  0  0
  2 14  1  0  0  0
 21 24  1  0  0  0
 20 25  1  0  0  0
 12 15  1  0  0  0
 13 16  1  0  0  0
 14 17  1  0  0  0
 24 26  1  0  0  0
 25 27  1  0  0  0
M  END
> <minimizedAffinity>
-6.27137

$$$$
Quercetin


 27 29  0  0  0  0  0  0  0  0999 V2000
  -32.0457   24.4418    5.8769 C   0  0  0  0  0  0  0  0  0  0  0  0
  -33.1528   23.6931    6.0583 C   0  0  0  0  0  0  0  0  0  0  0  0
  -34.4740   24.3674    5.9422 C   0  0  0  0  0  0  0  0  0  0  0  0
  -35.5425   23.7744    6.0716 O   0  0  0  0  0  0  0  0  0  0  0  0
  -34.4696   25.8069    5.6573 C   0  0  0  0  0  0  0  0  0  0  0  0
  -35.6609   26.5301    5.5204 C   0  0  0  0  0  0  0  0  0  0  0  0
  -35.6288   27.8964    5.2532 C   0  0  0  0  0  0  0  0  0  0  0  0
  -34.3974   28.5326    5.1268 C   0  0  0  0  0  0  0  0  0  0  0  0
  -33.2060   27.8241    5.2601 C   0  0  0  0  0  0  0  0  0  0  0  0
  -33.2451   26.4546    5.5233 C   0  0  0  0  0  0  0  0  0  0  0  0
  -32.0426   25.8051    5.6324 O   0  0  0  0  0  0  0  0  0  0  0  0
  -34.3148   29.8684    4.8661 O   0  0  0  0  0  0  0  0  0  0  0  0
  -36.8992   25.9564    5.6348 O   0  0  0  0  0  0  0  0  0  0  0  0
  -33.1518   22.3396    6.3471 O   0  0  0  0  0  0  0  0  0  0  0  0
  -35.2147   30.2310    4.7986 H   0  0  0  0  0  0  0  0  0  0  0  0
  -36.7753   24.9979    5.8278 H   0  0  0  0  0  0  0  0  0  0  0  0
  -32.2473   22.0607    6.5676 H   0  0  0  0  0  0  0  0  0  0  0  0
  -30.0547   23.6326    7.1543 C   0  0  0  0  0  0  0  0  0  0  0  0
  -28.7548   23.1191    7.2042 C   0  0  0  0  0  0  0  0  0  0  0  0
  -28.0974   22.8317    6.0155 C   0  0  0  0  0  0  0  0  0  0  0  0
  -28.7301   23.0430    4.7926 C   0  0  0  0  0  0  0  0  0  0  0  0
  -30.0206   23.5526    4.7322 C   0  0  0  0  0  0  0  0  0  0  0  0
  -30.6913   23.8652    5.9205 C   0  0  0  0  0  0  0  0  0  0  0  0
  -28.0752   22.7542    3.6296 O   0  0  0  0  0  0  0  0  0  0  0  0
  -26.8225   22.3398    5.9948 O   0  0  0  0  0  0  0  0  0  0  0  0
  -27.2047   22.4096    3.9133 H   0  0  0  0  0  0  0  0  0  0  0  0
  -26.5125   22.2513    6.9128 H   0  0  0  0  0  0  0  0  0  0  0  0
 18 19  2  0  0  0
 19 20  1  0  0  0
 20 21  2  0  0  0
 21 22  1  0  0  0
 22 23  2  0  0  0
 18 23  1  0  0  0
 23  1  1  0  0  0
  1  2  2  0  0  0
  2  3  1  0  0  0
  3  4  2  0  0  0
  3  5  1  0  0  0
  5  6  2  0  0  0
  6  7  1  0  0  0
  7  8  2  0  0  0
  8  9  1  0  0  0
  9 10  2  0  0  0
  5 10  1  0  0  0
 10 11  1  0  0  0
  1 11  1  0  0  0
  8 12  1  0  0  0
  6 13  1  0  0  0
  2 14  1  0  0  0
 21 24  1  0  0  0
 20 25  1  0  0  0
 12 15  1  0  0  0
 13 16  1  0  0  0
 14 17  1  0  0  0
 24 26  1  0  0  0
 25 27  1  0  0  0
M  END
> <minimizedAffinity>
-6.16852

$$$$
Quercetin


 27 29  0  0  0  0  0  0  0  0999 V2000
  -33.2674   27.8024    4.8235 C   0  0  0  0  0  0  0  0  0  0  0  0
  -34.5647   27.7458    5.1878 C   0  0  0  0  0  0  0  0  0  0  0  0
  -35.0541   26.4918    5.8217 C   0  0  0  0  0  0  0  0  0  0  0  0
  -36.2117   26.3429    6.2061 O   0  0  0  0  0  0  0  0  0  0  0  0
  -34.0866   25.4005    5.9842 C   0  0  0  0  0  0  0  0  0  0  0  0
  -34.4470   24.1844    6.5774 C   0  0  0  0  0  0  0  0  0  0  0  0
  -33.5101   23.1635    6.7166 C   0  0  0  0  0  0  0  0  0  0  0  0
  -32.2128   23.3681    6.2561 C   0  0  0  0  0  0  0  0  0  0  0  0
  -31.8421   24.5733    5.6653 C   0  0  0  0  0  0  0  0  0  0  0  0
  -32.7843   25.5937    5.5328 C   0  0  0  0  0  0  0  0  0  0  0  0
  -32.3615   26.7630    4.9552 O   0  0  0  0  0  0  0  0  0  0  0  0
  -31.2608   22.3985    6.3696 O   0  0  0  0  0  0  0  0  0  0  0  0
  -35.7075   23.9284    7.0476 O   0  0  0  0  0  0  0  0  0  0  0  0
  -35.4788   28.7703    5.0140 O   0  0  0  0  0  0  0  0  0  0  0  0
  -31.6559   21.6195    6.7971 H   0  0  0  0  0  0  0  0  0  0  0  0
  -36.2633   24.7251    6.8815 H   0  0  0  0  0  0  0  0  0  0  0  0
  -35.0893   29.4523    4.4417 H   0  0  0  0  0  0  0  0  0  0  0  0
  -32.4314   30.1497    5.0284 C   0  0  0  0  0  0  0  0  0  0  0  0
  -31.8967   31.3149    4.4693 C   0  0  0  0  0  0  0  0  0  0  0  0
  -31.5926   31.3345    3.1147 C   0  0  0  0  0  0  0  0  0  0  0  0
  -31.8085   30.2050    2.3285 C   0  0  0  0  0  0  0  0  0  0  0  0
  -32.3392   29.0433    2.8740 C   0  0  0  0  0  0  0  0  0  0  0  0
  -32.6687   29.0120    4.2342 C   0  0  0  0  0  0  0  0  0  0  0  0
  -31.5033   30.2345    0.9978 O   0  0  0  0  0  0  0  0  0  0  0  0
  -31.0796   32.4447    2.5048 O   0  0  0  0  0  0  0  0  0  0  0  0
  -31.1456   31.1321    0.8446 H   0  0  0  0  0  0  0  0  0  0  0  0
  -30.9904   33.1478    3.1713 H   0  0  0  0  0  0  0  0  0  0  0  0
 18 19  2  0  0  0
 19 20  1  0  0  0
 20 21  2  0  0  0
 21 22  1  0  0  0
 22 23  2  0  0  0
 18 23  1  0  0  0
 23  1  1  0  0  0
  1  2  2  0  0  0
  2  3  1  0  0  0
  3  4  2  0  0  0
  3  5  1  0  0  0
  5  6  2  0  0  0
  6  7  1  0  0  0
  7  8  2  0  0  0
  8  9  1  0  0  0
  9 10  2  0  0  0
  5 10  1  0  0  0
 10 11  1  0  0  0
  1 11  1  0  0  0
  8 12  1  0  0  0
  6 13  1  0  0  0
  2 14  1  0  0  0
 21 24  1  0  0  0
 20 25  1  0  0  0
 12 15  1  0  0  0
 13 16  1  0  0  0
 14 17  1  0  0  0
 24 26  1  0  0  0
 25 27  1  0  0  0
M  END
> <minimizedAffinity>
-6.02485

$$$$
Quercetin


 27 29  0  0  0  0  0  0  0  0999 V2000
  -33.9326   27.9062    5.2704 C   0  0  0  0  0  0  0  0  0  0  0  0
  -35.1704   28.4418    5.2705 C   0  0  0  0  0  0  0  0  0  0  0  0
  -35.3142   29.8586    4.8394 C   0  0  0  0  0  0  0  0  0  0  0  0
  -36.3976   30.4360    4.7861 O   0  0  0  0  0  0  0  0  0  0  0  0
  -34.0886   30.5733    4.4646 C   0  0  0  0  0  0  0  0  0  0  0  0
  -34.1198   31.9063    4.0367 C   0  0  0  0  0  0  0  0  0  0  0  0
  -32.9416   32.5626    3.6898 C   0  0  0  0  0  0  0  0  0  0  0  0
  -31.7339   31.8764    3.7767 C   0  0  0  0  0  0  0  0  0  0  0  0
  -31.6901   30.5505    4.2000 C   0  0  0  0  0  0  0  0  0  0  0  0
  -32.8745   29.8973    4.5419 C   0  0  0  0  0  0  0  0  0  0  0  0
  -32.7739   28.5892    4.9398 O   0  0  0  0  0  0  0  0  0  0  0  0
  -30.5542   32.4763    3.4486 O   0  0  0  0  0  0  0  0  0  0  0  0
  -35.2782   32.6293    3.9325 O   0  0  0  0  0  0  0  0  0  0  0  0
  -36.3212   27.7700    5.6444 O   0  0  0  0  0  0  0  0  0  0  0  0
  -30.7339   33.3915    3.1729 H   0  0  0  0  0  0  0  0  0  0  0  0
  -36.0257   32.0508    4.2114 H   0  0  0  0  0  0  0  0  0  0  0  0
  -36.0774   26.9283    6.0646 H   0  0  0  0  0  0  0  0  0  0  0  0
  -32.4697   25.8788    5.2856 C   0  0  0  0  0  0  0  0  0  0  0  0
  -32.2403   24.5336    5.5920 C   0  0  0  0  0  0  0  0  0  0  0  0
  -33.2277   23.8148    6.2523 C   0  0  0  0  0  0  0  0  0  0  0  0
  -34.4245   24.4301    6.6124 C   0  0  0  0  0  0  0  0  0  0  0  0
  -34.6621   25.7652    6.3125 C   0  0  0  0  0  0  0  0  0  0  0  0
  -33.6848   26.4999    5.6308 C   0  0  0  0  0  0  0  0  0  0  0  0
  -35.3877   23.7143    7.2640 O   0  0  0  0  0  0  0  0  0  0  0  0
  -33.0713   22.4947    6.5697 O   0  0  0  0  0  0  0  0  0  0  0  0
  -35.0040   22.8208    7.3709 H   0  0  0  0  0  0  0  0  0  0  0  0
  -32.1982   22.2041    6.2536 H   0  0  0  0  0  0  0  0  0  0  0  0
 18 19  2  0  0  0
 19 20  1  0  0  0
 20 21  2  0  0  0
 21 22  1  0  0  0
 22 23  2  0  0  0
 18 23  1  0  0  0
 23  1  1  0  0  0
  1  2  2  0  0  0
  2  3  1  0  0  0
  3  4  2  0  0  0
  3  5  1  0  0  0
  5  6  2  0  0  0
  6  7  1  0  0  0
  7  8  2  0  0  0
  8  9  1  0  0  0
  9 10  2  0  0  0
  5 10  1  0  0  0
 10 11  1  0  0  0
  1 11  1  0  0  0
  8 12  1  0  0  0
  6 13  1  0  0  0
  2 14  1  0  0  0
 21 24  1  0  0  0
 20 25  1  0  0  0
 12 15  1  0  0  0
 13 16  1  0  0  0
 14 17  1  0  0  0
 24 26  1  0  0  0
 25 27  1  0  0  0
M  END
> <minimizedAffinity>
-5.48988

$$$$
