Quercetin


 27 29  0  0  0  0  0  0  0  0999 V2000
  -16.7189   24.9027    3.5579 C   0  0  0  0  0  0  0  0  0  0  0  0
  -15.8251   25.8824    3.8034 C   0  0  0  0  0  0  0  0  0  0  0  0
  -15.8351   27.0717    2.9093 C   0  0  0  0  0  0  0  0  0  0  0  0
  -15.0758   28.0267    3.0561 O   0  0  0  0  0  0  0  0  0  0  0  0
  -16.8088   27.0773    1.8115 C   0  0  0  0  0  0  0  0  0  0  0  0
  -16.9030   28.1544    0.9215 C   0  0  0  0  0  0  0  0  0  0  0  0
  -17.8338   28.1331   -0.1141 C   0  0  0  0  0  0  0  0  0  0  0  0
  -18.6663   27.0265   -0.2532 C   0  0  0  0  0  0  0  0  0  0  0  0
  -18.5826   25.9498    0.6259 C   0  0  0  0  0  0  0  0  0  0  0  0
  -17.6510   25.9792    1.6639 C   0  0  0  0  0  0  0  0  0  0  0  0
  -17.6207   24.8983    2.5067 O   0  0  0  0  0  0  0  0  0  0  0  0
  -19.5927   26.9593   -1.2515 O   0  0  0  0  0  0  0  0  0  0  0  0
  -16.1101   29.2674    1.0109 O   0  0  0  0  0  0  0  0  0  0  0  0
  -14.8947   25.8636    4.8278 O   0  0  0  0  0  0  0  0  0  0  0  0
  -19.5401   27.7719   -1.7833 H   0  0  0  0  0  0  0  0  0  0  0  0
  -15.5006   29.1478    1.7760 H   0  0  0  0  0  0  0  0  0  0  0  0
  -14.8715   24.9757    5.2219 H   0  0  0  0  0  0  0  0  0  0  0  0
  -15.7669   22.7844    4.4838 C   0  0  0  0  0  0  0  0  0  0  0  0
  -15.8757   21.6277    5.2624 C   0  0  0  0  0  0  0  0  0  0  0  0
  -17.0466   21.4015    5.9735 C   0  0  0  0  0  0  0  0  0  0  0  0
  -18.0921   22.3204    5.9184 C   0  0  0  0  0  0  0  0  0  0  0  0
  -17.9940   23.4718    5.1481 C   0  0  0  0  0  0  0  0  0  0  0  0
  -16.8278   23.7067    4.4103 C   0  0  0  0  0  0  0  0  0  0  0  0
  -19.2383   22.0892    6.6239 O   0  0  0  0  0  0  0  0  0  0  0  0
  -17.2214   20.2855    6.7427 O   0  0  0  0  0  0  0  0  0  0  0  0
  -19.0791   21.2417    7.0860 H   0  0  0  0  0  0  0  0  0  0  0  0
  -16.4184   19.7398    6.6791 H   0  0  0  0  0  0  0  0  0  0  0  0
 18 19  2  0  0  0
 19 20  1  0  0  0
 20 21  2  0  0  0
 21 22  1  0  0  0
 22 23  2  0  0  0
 18 23  1  0  0  0
 23  1  1  0  0  0
  1  2  2  0  0  0
  2  3  1  0  0  0
  3  4  2  0  0  0
  3  5  1  0  0  0
  5  6  2  0  0  0
  6  7  1  0  0  0
  7  8  2  0  0  0
  8  9  1  0  0  0
  9 10  2  0  0  0
  5 10  1  0  0  0
 10 11  1  0  0  0
  1 11  1  0  0  0
  8 12  1  0  0  0
  6 13  1  0  0  0
  2 14  1  0  0  0
 21 24  1  0  0  0
 20 25  1  0  0  0
 12 15  1  0  0  0
 13 16  1  0  0  0
 14 17  1  0  0  0
 24 26  1  0  0  0
 25 27  1  0  0  0
M  END
> <minimizedAffinity>
-8.91494

$$$$
Quercetin


 27 29  0  0  0  0  0  0  0  0999 V2000
  -17.1575   24.1757    3.7139 C   0  0  0  0  0  0  0  0  0  0  0  0
  -18.1376   24.3593    2.8058 C   0  0  0  0  0  0  0  0  0  0  0  0
  -18.0175   25.5168    1.8786 C   0  0  0  0  0  0  0  0  0  0  0  0
  -18.8449   25.7634    1.0041 O   0  0  0  0  0  0  0  0  0  0  0  0
  -16.8455   26.3852    2.0381 C   0  0  0  0  0  0  0  0  0  0  0  0
  -16.6373   27.4943    1.2090 C   0  0  0  0  0  0  0  0  0  0  0  0
  -15.5181   28.3043    1.3837 C   0  0  0  0  0  0  0  0  0  0  0  0
  -14.6118   27.9977    2.3944 C   0  0  0  0  0  0  0  0  0  0  0  0
  -14.8075   26.8970    3.2248 C   0  0  0  0  0  0  0  0  0  0  0  0
  -15.9285   26.0870    3.0417 C   0  0  0  0  0  0  0  0  0  0  0  0
  -16.0644   25.0101    3.8793 O   0  0  0  0  0  0  0  0  0  0  0  0
  -13.5018   28.7611    2.6048 O   0  0  0  0  0  0  0  0  0  0  0  0
  -17.4952   27.8428    0.2000 O   0  0  0  0  0  0  0  0  0  0  0  0
  -19.2518   23.5494    2.6723 O   0  0  0  0  0  0  0  0  0  0  0  0
  -13.4937   29.4875    1.9582 H   0  0  0  0  0  0  0  0  0  0  0  0
  -18.2378   27.1949    0.1927 H   0  0  0  0  0  0  0  0  0  0  0  0
  -19.3021   22.9473    3.4335 H   0  0  0  0  0  0  0  0  0  0  0  0
  -18.1867   22.8788    5.5872 C   0  0  0  0  0  0  0  0  0  0  0  0
  -18.1712   21.8185    6.4991 C   0  0  0  0  0  0  0  0  0  0  0  0
  -17.1216   20.9105    6.4593 C   0  0  0  0  0  0  0  0  0  0  0  0
  -16.1054   21.0503    5.5168 C   0  0  0  0  0  0  0  0  0  0  0  0
  -16.1115   22.0997    4.6072 C   0  0  0  0  0  0  0  0  0  0  0  0
  -17.1525   23.0348    4.6450 C   0  0  0  0  0  0  0  0  0  0  0  0
  -15.0792   20.1499    5.4849 O   0  0  0  0  0  0  0  0  0  0  0  0
  -17.0407   19.8601    7.3300 O   0  0  0  0  0  0  0  0  0  0  0  0
  -15.2866   19.5112    6.1964 H   0  0  0  0  0  0  0  0  0  0  0  0
  -17.8087   19.8956    7.9262 H   0  0  0  0  0  0  0  0  0  0  0  0
 18 19  2  0  0  0
 19 20  1  0  0  0
 20 21  2  0  0  0
 21 22  1  0  0  0
 22 23  2  0  0  0
 18 23  1  0  0  0
 23  1  1  0  0  0
  1  2  2  0  0  0
  2  3  1  0  0  0
  3  4  2  0  0  0
  3  5  1  0  0  0
  5  6  2  0  0  0
  6  7  1  0  0  0
  7  8  2  0  0  0
  8  9  1  0  0  0
  9 10  2  0  0  0
  5 10  1  0  0  0
 10 11  1  0  0  0
  1 11  1  0  0  0
  8 12  1  0  0  0
  6 13  1  0  0  0
  2 14  1  0  0  0
 21 24  1  0  0  0
 20 25  1  0  0  0
 12 15  1  0  0  0
 13 16  1  0  0  0
 14 17  1  0  0  0
 24 26  1  0  0  0
 25 27  1  0  0  0
M  END
> <minimizedAffinity>
-8.06376

$$$$
Quercetin


 27 29  0  0  0  0  0  0  0  0999 V2000
  -17.3547   24.6443    3.0266 C   0  0  0  0  0  0  0  0  0  0  0  0
  -18.3813   24.6619    2.1520 C   0  0  0  0  0  0  0  0  0  0  0  0
  -18.3975   25.7351    1.1216 C   0  0  0  0  0  0  0  0  0  0  0  0
  -19.2761   25.8309    0.2678 O   0  0  0  0  0  0  0  0  0  0  0  0
  -17.2997   26.7084    1.1495 C   0  0  0  0  0  0  0  0  0  0  0  0
  -17.2203   27.7499    0.2168 C   0  0  0  0  0  0  0  0  0  0  0  0
  -16.1694   28.6623    0.2674 C   0  0  0  0  0  0  0  0  0  0  0  0
  -15.2019   28.5259    1.2584 C   0  0  0  0  0  0  0  0  0  0  0  0
  -15.2695   27.4939    2.1910 C   0  0  0  0  0  0  0  0  0  0  0  0
  -16.3224   26.5806    2.1321 C   0  0  0  0  0  0  0  0  0  0  0  0
  -16.3324   25.5778    3.0671 O   0  0  0  0  0  0  0  0  0  0  0  0
  -14.1548   29.3945    1.3490 O   0  0  0  0  0  0  0  0  0  0  0  0
  -18.1433   27.9319   -0.7784 O   0  0  0  0  0  0  0  0  0  0  0  0
  -19.4256   23.7537    2.1423 O   0  0  0  0  0  0  0  0  0  0  0  0
  -14.2344   30.0566    0.6411 H   0  0  0  0  0  0  0  0  0  0  0  0
  -18.8268   27.2269   -0.6941 H   0  0  0  0  0  0  0  0  0  0  0  0
  -19.3943   23.2222    2.9552 H   0  0  0  0  0  0  0  0  0  0  0  0
  -16.0272   22.8498    4.1527 C   0  0  0  0  0  0  0  0  0  0  0  0
  -15.8995   21.8302    5.1016 C   0  0  0  0  0  0  0  0  0  0  0  0
  -16.9618   21.5679    5.9562 C   0  0  0  0  0  0  0  0  0  0  0  0
  -18.1328   22.3181    5.8743 C   0  0  0  0  0  0  0  0  0  0  0  0
  -18.2695   23.3324    4.9356 C   0  0  0  0  0  0  0  0  0  0  0  0
  -17.2153   23.5982    4.0538 C   0  0  0  0  0  0  0  0  0  0  0  0
  -19.1704   22.0533    6.7217 O   0  0  0  0  0  0  0  0  0  0  0  0
  -16.9059   20.5779    6.8966 O   0  0  0  0  0  0  0  0  0  0  0  0
  -18.8503   21.3207    7.2855 H   0  0  0  0  0  0  0  0  0  0  0  0
  -16.0390   20.1411    6.8316 H   0  0  0  0  0  0  0  0  0  0  0  0
 18 19  2  0  0  0
 19 20  1  0  0  0
 20 21  2  0  0  0
 21 22  1  0  0  0
 22 23  2  0  0  0
 18 23  1  0  0  0
 23  1  1  0  0  0
  1  2  2  0  0  0
  2  3  1  0  0  0
  3  4  2  0  0  0
  3  5  1  0  0  0
  5  6  2  0  0  0
  6  7  1  0  0  0
  7  8  2  0  0  0
  8  9  1  0  0  0
  9 10  2  0  0  0
  5 10  1  0  0  0
 10 11  1  0  0  0
  1 11  1  0  0  0
  8 12  1  0  0  0
  6 13  1  0  0  0
  2 14  1  0  0  0
 21 24  1  0  0  0
 20 25  1  0  0  0
 12 15  1  0  0  0
 13 16  1  0  0  0
 14 17  1  0  0  0
 24 26  1  0  0  0
 25 27  1  0  0  0
M  END
> <minimizedAffinity>
-7.93212

$$$$
Quercetin


 27 29  0  0  0  0  0  0  0  0999 V2000
  -16.8447   24.0751    3.4293 C   0  0  0  0  0  0  0  0  0  0  0  0
  -16.2695   25.2582    3.7265 C   0  0  0  0  0  0  0  0  0  0  0  0
  -16.3400   26.3402    2.7076 C   0  0  0  0  0  0  0  0  0  0  0  0
  -15.8646   27.4594    2.8849 O   0  0  0  0  0  0  0  0  0  0  0  0
  -17.0164   26.0280    1.4434 C   0  0  0  0  0  0  0  0  0  0  0  0
  -17.1430   26.9813    0.4255 C   0  0  0  0  0  0  0  0  0  0  0  0
  -17.7869   26.6581   -0.7662 C   0  0  0  0  0  0  0  0  0  0  0  0
  -18.3000   25.3751   -0.9319 C   0  0  0  0  0  0  0  0  0  0  0  0
  -18.1811   24.4187    0.0733 C   0  0  0  0  0  0  0  0  0  0  0  0
  -17.5388   24.7502    1.2665 C   0  0  0  0  0  0  0  0  0  0  0  0
  -17.4614   23.7741    2.2262 O   0  0  0  0  0  0  0  0  0  0  0  0
  -18.9379   25.0113   -2.0808 O   0  0  0  0  0  0  0  0  0  0  0  0
  -16.6576   28.2573    0.5340 O   0  0  0  0  0  0  0  0  0  0  0  0
  -15.6146   25.5417    4.9123 O   0  0  0  0  0  0  0  0  0  0  0  0
  -18.9477   25.7708   -2.6881 H   0  0  0  0  0  0  0  0  0  0  0  0
  -16.2261   28.3462    1.4156 H   0  0  0  0  0  0  0  0  0  0  0  0
  -15.4850   24.7175    5.4106 H   0  0  0  0  0  0  0  0  0  0  0  0
  -17.8491   22.9107    5.4006 C   0  0  0  0  0  0  0  0  0  0  0  0
  -17.8640   21.8690    6.3338 C   0  0  0  0  0  0  0  0  0  0  0  0
  -16.9069   20.8675    6.2414 C   0  0  0  0  0  0  0  0  0  0  0  0
  -15.9532   20.8968    5.2265 C   0  0  0  0  0  0  0  0  0  0  0  0
  -15.9298   21.9267    4.2951 C   0  0  0  0  0  0  0  0  0  0  0  0
  -16.8760   22.9545    4.3844 C   0  0  0  0  0  0  0  0  0  0  0  0
  -15.0181   19.9051    5.1433 O   0  0  0  0  0  0  0  0  0  0  0  0
  -16.8589   19.8290    7.1286 O   0  0  0  0  0  0  0  0  0  0  0  0
  -15.2306   19.3004    5.8825 H   0  0  0  0  0  0  0  0  0  0  0  0
  -17.5752   19.9453    7.7766 H   0  0  0  0  0  0  0  0  0  0  0  0
 18 19  2  0  0  0
 19 20  1  0  0  0
 20 21  2  0  0  0
 21 22  1  0  0  0
 22 23  2  0  0  0
 18 23  1  0  0  0
 23  1  1  0  0  0
  1  2  2  0  0  0
  2  3  1  0  0  0
  3  4  2  0  0  0
  3  5  1  0  0  0
  5  6  2  0  0  0
  6  7  1  0  0  0
  7  8  2  0  0  0
  8  9  1  0  0  0
  9 10  2  0  0  0
  5 10  1  0  0  0
 10 11  1  0  0  0
  1 11  1  0  0  0
  8 12  1  0  0  0
  6 13  1  0  0  0
  2 14  1  0  0  0
 21 24  1  0  0  0
 20 25  1  0  0  0
 12 15  1  0  0  0
 13 16  1  0  0  0
 14 17  1  0  0  0
 24 26  1  0  0  0
 25 27  1  0  0  0
M  END
> <minimizedAffinity>
-7.89298

$$$$
Quercetin


 27 29  0  0  0  0  0  0  0  0999 V2000
  -17.4354   25.2214    1.5430 C   0  0  0  0  0  0  0  0  0  0  0  0
  -17.1727   24.8675    2.8177 C   0  0  0  0  0  0  0  0  0  0  0  0
  -16.1151   25.6213    3.5438 C   0  0  0  0  0  0  0  0  0  0  0  0
  -15.8107   25.3913    4.7119 O   0  0  0  0  0  0  0  0  0  0  0  0
  -15.4224   26.6839    2.8062 C   0  0  0  0  0  0  0  0  0  0  0  0
  -14.4187   27.4561    3.4040 C   0  0  0  0  0  0  0  0  0  0  0  0
  -13.7746   28.4566    2.6805 C   0  0  0  0  0  0  0  0  0  0  0  0
  -14.1404   28.6761    1.3558 C   0  0  0  0  0  0  0  0  0  0  0  0
  -15.1374   27.9154    0.7505 C   0  0  0  0  0  0  0  0  0  0  0  0
  -15.7820   26.9176    1.4822 C   0  0  0  0  0  0  0  0  0  0  0  0
  -16.7640   26.2081    0.8403 O   0  0  0  0  0  0  0  0  0  0  0  0
  -13.5383   29.6434    0.6067 O   0  0  0  0  0  0  0  0  0  0  0  0
  -14.0188   27.2838    4.7024 O   0  0  0  0  0  0  0  0  0  0  0  0
  -17.8146   23.8508    3.5030 O   0  0  0  0  0  0  0  0  0  0  0  0
  -12.8691   30.0913    1.1521 H   0  0  0  0  0  0  0  0  0  0  0  0
  -14.5474   26.5477    5.0899 H   0  0  0  0  0  0  0  0  0  0  0  0
  -18.3466   23.3306    2.8779 H   0  0  0  0  0  0  0  0  0  0  0  0
  -18.2464   23.3602    0.0839 C   0  0  0  0  0  0  0  0  0  0  0  0
  -19.2356   22.7578   -0.7002 C   0  0  0  0  0  0  0  0  0  0  0  0
  -20.4766   23.3709   -0.8081 C   0  0  0  0  0  0  0  0  0  0  0  0
  -20.7332   24.5635   -0.1356 C   0  0  0  0  0  0  0  0  0  0  0  0
  -19.7578   25.1698    0.6453 C   0  0  0  0  0  0  0  0  0  0  0  0
  -18.4950   24.5749    0.7505 C   0  0  0  0  0  0  0  0  0  0  0  0
  -21.9583   25.1565   -0.2466 O   0  0  0  0  0  0  0  0  0  0  0  0
  -21.4814   22.8409   -1.5678 O   0  0  0  0  0  0  0  0  0  0  0  0
  -22.4717   24.5599   -0.8276 H   0  0  0  0  0  0  0  0  0  0  0  0
  -21.1567   22.0203   -1.9774 H   0  0  0  0  0  0  0  0  0  0  0  0
 18 19  2  0  0  0
 19 20  1  0  0  0
 20 21  2  0  0  0
 21 22  1  0  0  0
 22 23  2  0  0  0
 18 23  1  0  0  0
 23  1  1  0  0  0
  1  2  2  0  0  0
  2  3  1  0  0  0
  3  4  2  0  0  0
  3  5  1  0  0  0
  5  6  2  0  0  0
  6  7  1  0  0  0
  7  8  2  0  0  0
  8  9  1  0  0  0
  9 10  2  0  0  0
  5 10  1  0  0  0
 10 11  1  0  0  0
  1 11  1  0  0  0
  8 12  1  0  0  0
  6 13  1  0  0  0
  2 14  1  0  0  0
 21 24  1  0  0  0
 20 25  1  0  0  0
 12 15  1  0  0  0
 13 16  1  0  0  0
 14 17  1  0  0  0
 24 26  1  0  0  0
 25 27  1  0  0  0
M  END
> <minimizedAffinity>
-7.50233

$$$$
