Quercetin


 27 29  0  0  0  0  0  0  0  0999 V2000
   -5.9401   29.0950   16.8884 C   0  0  0  0  0  0  0  0  0  0  0  0
   -5.6582   27.9250   17.4973 C   0  0  0  0  0  0  0  0  0  0  0  0
   -4.2953   27.3571   17.3135 C   0  0  0  0  0  0  0  0  0  0  0  0
   -3.9305   26.3075   17.8381 O   0  0  0  0  0  0  0  0  0  0  0  0
   -3.3647   28.1081   16.4630 C   0  0  0  0  0  0  0  0  0  0  0  0
   -2.0571   27.6616   16.2356 C   0  0  0  0  0  0  0  0  0  0  0  0
   -1.1950   28.3918   15.4214 C   0  0  0  0  0  0  0  0  0  0  0  0
   -1.6517   29.5688   14.8357 C   0  0  0  0  0  0  0  0  0  0  0  0
   -2.9495   30.0234   15.0549 C   0  0  0  0  0  0  0  0  0  0  0  0
   -3.8069   29.2896   15.8752 C   0  0  0  0  0  0  0  0  0  0  0  0
   -5.0689   29.7902   16.0662 O   0  0  0  0  0  0  0  0  0  0  0  0
   -0.8452   30.3175   14.0306 O   0  0  0  0  0  0  0  0  0  0  0  0
   -1.5552   26.5122   16.7854 O   0  0  0  0  0  0  0  0  0  0  0  0
   -6.5457   27.2097   18.2821 O   0  0  0  0  0  0  0  0  0  0  0  0
    0.0236   29.8850   13.9676 H   0  0  0  0  0  0  0  0  0  0  0  0
   -2.2658   26.0972   17.3278 H   0  0  0  0  0  0  0  0  0  0  0  0
   -7.4360   27.5860   18.1814 H   0  0  0  0  0  0  0  0  0  0  0  0
   -8.4002   29.2237   16.4623 C   0  0  0  0  0  0  0  0  0  0  0  0
   -9.6325   29.8756   16.5749 C   0  0  0  0  0  0  0  0  0  0  0  0
   -9.7011   31.0705   17.2787 C   0  0  0  0  0  0  0  0  0  0  0  0
   -8.5595   31.6044   17.8720 C   0  0  0  0  0  0  0  0  0  0  0  0
   -7.3312   30.9649   17.7659 C   0  0  0  0  0  0  0  0  0  0  0  0
   -7.2402   29.7688   17.0443 C   0  0  0  0  0  0  0  0  0  0  0  0
   -8.6390   32.7788   18.5642 O   0  0  0  0  0  0  0  0  0  0  0  0
  -10.8713   31.7632   17.4151 O   0  0  0  0  0  0  0  0  0  0  0  0
   -9.5816   33.0352   18.5116 H   0  0  0  0  0  0  0  0  0  0  0  0
  -11.5726   31.2765   16.9481 H   0  0  0  0  0  0  0  0  0  0  0  0
 18 19  2  0  0  0
 19 20  1  0  0  0
 20 21  2  0  0  0
 21 22  1  0  0  0
 22 23  2  0  0  0
 18 23  1  0  0  0
 23  1  1  0  0  0
  1  2  2  0  0  0
  2  3  1  0  0  0
  3  4  2  0  0  0
  3  5  1  0  0  0
  5  6  2  0  0  0
  6  7  1  0  0  0
  7  8  2  0  0  0
  8  9  1  0  0  0
  9 10  2  0  0  0
  5 10  1  0  0  0
 10 11  1  0  0  0
  1 11  1  0  0  0
  8 12  1  0  0  0
  6 13  1  0  0  0
  2 14  1  0  0  0
 21 24  1  0  0  0
 20 25  1  0  0  0
 12 15  1  0  0  0
 13 16  1  0  0  0
 14 17  1  0  0  0
 24 26  1  0  0  0
 25 27  1  0  0  0
M  END
> <minimizedAffinity>
-5.86186

$$$$
Quercetin


 27 29  0  0  0  0  0  0  0  0999 V2000
   -9.9173   32.1903   17.5864 C   0  0  0  0  0  0  0  0  0  0  0  0
  -10.6613   32.3289   18.7028 C   0  0  0  0  0  0  0  0  0  0  0  0
  -11.7117   33.3826   18.7111 C   0  0  0  0  0  0  0  0  0  0  0  0
  -12.4552   33.5800   19.6694 O   0  0  0  0  0  0  0  0  0  0  0  0
  -11.8441   34.2071   17.5045 C   0  0  0  0  0  0  0  0  0  0  0  0
  -12.8083   35.2183   17.4105 C   0  0  0  0  0  0  0  0  0  0  0  0
  -12.9108   35.9888   16.2550 C   0  0  0  0  0  0  0  0  0  0  0  0
  -12.0408   35.7414   15.1972 C   0  0  0  0  0  0  0  0  0  0  0  0
  -11.0785   34.7381   15.2784 C   0  0  0  0  0  0  0  0  0  0  0  0
  -10.9839   33.9669   16.4371 C   0  0  0  0  0  0  0  0  0  0  0  0
  -10.0270   32.9853   16.4576 O   0  0  0  0  0  0  0  0  0  0  0  0
  -12.1020   36.4694   14.0459 O   0  0  0  0  0  0  0  0  0  0  0  0
  -13.6891   35.5052   18.4191 O   0  0  0  0  0  0  0  0  0  0  0  0
  -10.5192   31.5623   19.8463 O   0  0  0  0  0  0  0  0  0  0  0  0
  -12.8133   37.1275   14.1285 H   0  0  0  0  0  0  0  0  0  0  0  0
  -13.5029   34.8949   19.1703 H   0  0  0  0  0  0  0  0  0  0  0  0
   -9.7015   31.0411   19.7819 H   0  0  0  0  0  0  0  0  0  0  0  0
   -9.1836   29.9263   16.8206 C   0  0  0  0  0  0  0  0  0  0  0  0
   -8.2207   28.9167   16.7222 C   0  0  0  0  0  0  0  0  0  0  0  0
   -6.9566   29.1368   17.2526 C   0  0  0  0  0  0  0  0  0  0  0  0
   -6.6516   30.3507   17.8640 C   0  0  0  0  0  0  0  0  0  0  0  0
   -7.6006   31.3595   17.9669 C   0  0  0  0  0  0  0  0  0  0  0  0
   -8.8858   31.1476   17.4539 C   0  0  0  0  0  0  0  0  0  0  0  0
   -5.4042   30.5576   18.3798 O   0  0  0  0  0  0  0  0  0  0  0  0
   -5.9751   28.1872   17.2005 O   0  0  0  0  0  0  0  0  0  0  0  0
   -4.9161   29.7315   18.1890 H   0  0  0  0  0  0  0  0  0  0  0  0
   -6.3330   27.3997   16.7550 H   0  0  0  0  0  0  0  0  0  0  0  0
 18 19  2  0  0  0
 19 20  1  0  0  0
 20 21  2  0  0  0
 21 22  1  0  0  0
 22 23  2  0  0  0
 18 23  1  0  0  0
 23  1  1  0  0  0
  1  2  2  0  0  0
  2  3  1  0  0  0
  3  4  2  0  0  0
  3  5  1  0  0  0
  5  6  2  0  0  0
  6  7  1  0  0  0
  7  8  2  0  0  0
  8  9  1  0  0  0
  9 10  2  0  0  0
  5 10  1  0  0  0
 10 11  1  0  0  0
  1 11  1  0  0  0
  8 12  1  0  0  0
  6 13  1  0  0  0
  2 14  1  0  0  0
 21 24  1  0  0  0
 20 25  1  0  0  0
 12 15  1  0  0  0
 13 16  1  0  0  0
 14 17  1  0  0  0
 24 26  1  0  0  0
 25 27  1  0  0  0
M  END
> <minimizedAffinity>
-5.67738

$$$$
Quercetin


 27 29  0  0  0  0  0  0  0  0999 V2000
   -7.1374   29.9440   17.5004 C   0  0  0  0  0  0  0  0  0  0  0  0
   -8.2442   29.8887   16.7316 C   0  0  0  0  0  0  0  0  0  0  0  0
   -9.3990   30.7454   17.1139 C   0  0  0  0  0  0  0  0  0  0  0  0
  -10.4464   30.7835   16.4723 O   0  0  0  0  0  0  0  0  0  0  0  0
   -9.2507   31.5738   18.3160 C   0  0  0  0  0  0  0  0  0  0  0  0
  -10.2767   32.4206   18.7532 C   0  0  0  0  0  0  0  0  0  0  0  0
  -10.1114   33.1941   19.8993 C   0  0  0  0  0  0  0  0  0  0  0  0
   -8.9144   33.1118   20.6045 C   0  0  0  0  0  0  0  0  0  0  0  0
   -7.8865   32.2741   20.1793 C   0  0  0  0  0  0  0  0  0  0  0  0
   -8.0567   31.5051   19.0278 C   0  0  0  0  0  0  0  0  0  0  0  0
   -7.0078   30.7079   18.6484 O   0  0  0  0  0  0  0  0  0  0  0  0
   -8.7059   33.8488   21.7326 O   0  0  0  0  0  0  0  0  0  0  0  0
  -11.4739   32.5411   18.0993 O   0  0  0  0  0  0  0  0  0  0  0  0
   -8.3872   29.0903   15.6102 O   0  0  0  0  0  0  0  0  0  0  0  0
   -9.4992   34.3829   21.9093 H   0  0  0  0  0  0  0  0  0  0  0  0
  -11.4574   31.9404   17.3181 H   0  0  0  0  0  0  0  0  0  0  0  0
   -7.6475   28.4613   15.5695 H   0  0  0  0  0  0  0  0  0  0  0  0
   -4.9043   29.7445   16.3940 C   0  0  0  0  0  0  0  0  0  0  0  0
   -3.7626   29.0097   16.0585 C   0  0  0  0  0  0  0  0  0  0  0  0
   -3.6387   27.7071   16.5230 C   0  0  0  0  0  0  0  0  0  0  0  0
   -4.6340   27.1465   17.3201 C   0  0  0  0  0  0  0  0  0  0  0  0
   -5.7716   27.8676   17.6587 C   0  0  0  0  0  0  0  0  0  0  0  0
   -5.9214   29.1759   17.1838 C   0  0  0  0  0  0  0  0  0  0  0  0
   -4.5006   25.8653   17.7737 O   0  0  0  0  0  0  0  0  0  0  0  0
   -2.5544   26.9318   16.2211 O   0  0  0  0  0  0  0  0  0  0  0  0
   -3.6379   25.5659   17.4228 H   0  0  0  0  0  0  0  0  0  0  0  0
   -1.9532   27.4502   15.6586 H   0  0  0  0  0  0  0  0  0  0  0  0
 18 19  2  0  0  0
 19 20  1  0  0  0
 20 21  2  0  0  0
 21 22  1  0  0  0
 22 23  2  0  0  0
 18 23  1  0  0  0
 23  1  1  0  0  0
  1  2  2  0  0  0
  2  3  1  0  0  0
  3  4  2  0  0  0
  3  5  1  0  0  0
  5  6  2  0  0  0
  6  7  1  0  0  0
  7  8  2  0  0  0
  8  9  1  0  0  0
  9 10  2  0  0  0
  5 10  1  0  0  0
 10 11  1  0  0  0
  1 11  1  0  0  0
  8 12  1  0  0  0
  6 13  1  0  0  0
  2 14  1  0  0  0
 21 24  1  0  0  0
 20 25  1  0  0  0
 12 15  1  0  0  0
 13 16  1  0  0  0
 14 17  1  0  0  0
 24 26  1  0  0  0
 25 27  1  0  0  0
M  END
> <minimizedAffinity>
-5.66449

$$$$
Quercetin


 27 29  0  0  0  0  0  0  0  0999 V2000
   -9.6550   33.1724   17.5429 C   0  0  0  0  0  0  0  0  0  0  0  0
   -9.6687   31.8507   17.2750 C   0  0  0  0  0  0  0  0  0  0  0  0
   -8.5416   31.0261   17.7883 C   0  0  0  0  0  0  0  0  0  0  0  0
   -8.4668   29.8118   17.6157 O   0  0  0  0  0  0  0  0  0  0  0  0
   -7.4864   31.7222   18.5335 C   0  0  0  0  0  0  0  0  0  0  0  0
   -6.3888   31.0337   19.0648 C   0  0  0  0  0  0  0  0  0  0  0  0
   -5.3993   31.7189   19.7653 C   0  0  0  0  0  0  0  0  0  0  0  0
   -5.5153   33.0963   19.9274 C   0  0  0  0  0  0  0  0  0  0  0  0
   -6.6024   33.7920   19.4043 C   0  0  0  0  0  0  0  0  0  0  0  0
   -7.5926   33.0990   18.7074 C   0  0  0  0  0  0  0  0  0  0  0  0
   -8.6461   33.8320   18.2252 O   0  0  0  0  0  0  0  0  0  0  0  0
   -4.5720   33.8108   20.6047 O   0  0  0  0  0  0  0  0  0  0  0  0
   -6.2235   29.6804   18.9357 O   0  0  0  0  0  0  0  0  0  0  0  0
  -10.6559   31.2016   16.5541 O   0  0  0  0  0  0  0  0  0  0  0  0
   -3.8780   33.2024   20.9113 H   0  0  0  0  0  0  0  0  0  0  0  0
   -6.9850   29.3274   18.4191 H   0  0  0  0  0  0  0  0  0  0  0  0
  -11.2300   31.8624   16.1322 H   0  0  0  0  0  0  0  0  0  0  0  0
  -11.6288   34.6104   18.0785 C   0  0  0  0  0  0  0  0  0  0  0  0
  -12.6884   35.4350   17.6869 C   0  0  0  0  0  0  0  0  0  0  0  0
  -12.8554   35.7237   16.3391 C   0  0  0  0  0  0  0  0  0  0  0  0
  -11.9725   35.2064   15.3939 C   0  0  0  0  0  0  0  0  0  0  0  0
  -10.9173   34.3865   15.7725 C   0  0  0  0  0  0  0  0  0  0  0  0
  -10.7450   34.0703   17.1252 C   0  0  0  0  0  0  0  0  0  0  0  0
  -12.1445   35.4990   14.0712 O   0  0  0  0  0  0  0  0  0  0  0  0
  -13.8771   36.5122   15.8896 O   0  0  0  0  0  0  0  0  0  0  0  0
  -12.9283   36.0838   14.0457 H   0  0  0  0  0  0  0  0  0  0  0  0
  -14.4088   36.7919   16.6549 H   0  0  0  0  0  0  0  0  0  0  0  0
 18 19  2  0  0  0
 19 20  1  0  0  0
 20 21  2  0  0  0
 21 22  1  0  0  0
 22 23  2  0  0  0
 18 23  1  0  0  0
 23  1  1  0  0  0
  1  2  2  0  0  0
  2  3  1  0  0  0
  3  4  2  0  0  0
  3  5  1  0  0  0
  5  6  2  0  0  0
  6  7  1  0  0  0
  7  8  2  0  0  0
  8  9  1  0  0  0
  9 10  2  0  0  0
  5 10  1  0  0  0
 10 11  1  0  0  0
  1 11  1  0  0  0
  8 12  1  0  0  0
  6 13  1  0  0  0
  2 14  1  0  0  0
 21 24  1  0  0  0
 20 25  1  0  0  0
 12 15  1  0  0  0
 13 16  1  0  0  0
 14 17  1  0  0  0
 24 26  1  0  0  0
 25 27  1  0  0  0
M  END
> <minimizedAffinity>
-5.06311

$$$$
Quercetin


 27 29  0  0  0  0  0  0  0  0999 V2000
   -6.6144   30.8246   18.6083 C   0  0  0  0  0  0  0  0  0  0  0  0
   -6.4022   30.4391   19.8832 C   0  0  0  0  0  0  0  0  0  0  0  0
   -5.3029   29.4704   20.1421 C   0  0  0  0  0  0  0  0  0  0  0  0
   -5.0150   29.0688   21.2672 O   0  0  0  0  0  0  0  0  0  0  0  0
   -4.5435   28.9917   18.9813 C   0  0  0  0  0  0  0  0  0  0  0  0
   -3.4845   28.0863   19.1216 C   0  0  0  0  0  0  0  0  0  0  0  0
   -2.7820   27.6452   18.0030 C   0  0  0  0  0  0  0  0  0  0  0  0
   -3.1485   28.1146   16.7451 C   0  0  0  0  0  0  0  0  0  0  0  0
   -4.1992   29.0157   16.5929 C   0  0  0  0  0  0  0  0  0  0  0  0
   -4.8962   29.4571   17.7180 C   0  0  0  0  0  0  0  0  0  0  0  0
   -5.9129   30.3533   17.5110 O   0  0  0  0  0  0  0  0  0  0  0  0
   -2.4913   27.7114   15.6205 O   0  0  0  0  0  0  0  0  0  0  0  0
   -3.0813   27.5920   20.3334 O   0  0  0  0  0  0  0  0  0  0  0  0
   -7.1344   30.8776   20.9727 O   0  0  0  0  0  0  0  0  0  0  0  0
   -1.7883   27.0891   15.8742 H   0  0  0  0  0  0  0  0  0  0  0  0
   -3.6618   27.9786   21.0297 H   0  0  0  0  0  0  0  0  0  0  0  0
   -7.9185   31.3579   20.6582 H   0  0  0  0  0  0  0  0  0  0  0  0
   -7.3508   33.1920   18.2864 C   0  0  0  0  0  0  0  0  0  0  0  0
   -8.3314   34.1411   17.9804 C   0  0  0  0  0  0  0  0  0  0  0  0
   -9.6024   33.7075   17.6276 C   0  0  0  0  0  0  0  0  0  0  0  0
   -9.8907   32.3458   17.5700 C   0  0  0  0  0  0  0  0  0  0  0  0
   -8.9240   31.3955   17.8722 C   0  0  0  0  0  0  0  0  0  0  0  0
   -7.6425   31.8155   18.2476 C   0  0  0  0  0  0  0  0  0  0  0  0
  -11.1433   31.9304   17.2193 O   0  0  0  0  0  0  0  0  0  0  0  0
  -10.6083   34.5832   17.3292 O   0  0  0  0  0  0  0  0  0  0  0  0
  -11.6403   32.7556   17.0488 H   0  0  0  0  0  0  0  0  0  0  0  0
  -10.2634   35.4887   17.4170 H   0  0  0  0  0  0  0  0  0  0  0  0
 18 19  2  0  0  0
 19 20  1  0  0  0
 20 21  2  0  0  0
 21 22  1  0  0  0
 22 23  2  0  0  0
 18 23  1  0  0  0
 23  1  1  0  0  0
  1  2  2  0  0  0
  2  3  1  0  0  0
  3  4  2  0  0  0
  3  5  1  0  0  0
  5  6  2  0  0  0
  6  7  1  0  0  0
  7  8  2  0  0  0
  8  9  1  0  0  0
  9 10  2  0  0  0
  5 10  1  0  0  0
 10 11  1  0  0  0
  1 11  1  0  0  0
  8 12  1  0  0  0
  6 13  1  0  0  0
  2 14  1  0  0  0
 21 24  1  0  0  0
 20 25  1  0  0  0
 12 15  1  0  0  0
 13 16  1  0  0  0
 14 17  1  0  0  0
 24 26  1  0  0  0
 25 27  1  0  0  0
M  END
> <minimizedAffinity>
-5.05451

$$$$
