Quercetin


 27 29  0  0  0  0  0  0  0  0999 V2000
  -13.8515    4.4549    2.5768 C   0  0  0  0  0  0  0  0  0  0  0  0
  -13.0344    3.7703    3.4031 C   0  0  0  0  0  0  0  0  0  0  0  0
  -11.7406    4.4009    3.7800 C   0  0  0  0  0  0  0  0  0  0  0  0
  -10.9331    3.8709    4.5396 O   0  0  0  0  0  0  0  0  0  0  0  0
  -11.4434    5.7176    3.2044 C   0  0  0  0  0  0  0  0  0  0  0  0
  -10.2565    6.3973    3.5048 C   0  0  0  0  0  0  0  0  0  0  0  0
   -9.9973    7.6446    2.9423 C   0  0  0  0  0  0  0  0  0  0  0  0
  -10.9324    8.2041    2.0765 C   0  0  0  0  0  0  0  0  0  0  0  0
  -12.1166    7.5383    1.7708 C   0  0  0  0  0  0  0  0  0  0  0  0
  -12.3722    6.2910    2.3411 C   0  0  0  0  0  0  0  0  0  0  0  0
  -13.5588    5.6866    2.0149 O   0  0  0  0  0  0  0  0  0  0  0  0
  -10.7232    9.4223    1.5008 O   0  0  0  0  0  0  0  0  0  0  0  0
   -9.3022    5.8948    4.3488 O   0  0  0  0  0  0  0  0  0  0  0  0
  -13.3099    2.5195    3.9275 O   0  0  0  0  0  0  0  0  0  0  0  0
   -9.8652    9.7680    1.8012 H   0  0  0  0  0  0  0  0  0  0  0  0
   -9.6088    5.0137    4.6667 H   0  0  0  0  0  0  0  0  0  0  0  0
  -14.0856    2.1474    3.4756 H   0  0  0  0  0  0  0  0  0  0  0  0
  -16.2455    3.9542    3.0950 C   0  0  0  0  0  0  0  0  0  0  0  0
  -17.4962    3.4392    2.7391 C   0  0  0  0  0  0  0  0  0  0  0  0
  -17.6740    2.9229    1.4625 C   0  0  0  0  0  0  0  0  0  0  0  0
  -16.6231    2.9287    0.5483 C   0  0  0  0  0  0  0  0  0  0  0  0
  -15.3774    3.4376    0.8920 C   0  0  0  0  0  0  0  0  0  0  0  0
  -15.1752    3.9453    2.1808 C   0  0  0  0  0  0  0  0  0  0  0  0
  -16.8099    2.4209   -0.7055 O   0  0  0  0  0  0  0  0  0  0  0  0
  -18.8668    2.3939    1.0562 O   0  0  0  0  0  0  0  0  0  0  0  0
  -17.7449    2.1333   -0.7205 H   0  0  0  0  0  0  0  0  0  0  0  0
  -19.4967    2.4528    1.7954 H   0  0  0  0  0  0  0  0  0  0  0  0
 18 19  2  0  0  0
 19 20  1  0  0  0
 20 21  2  0  0  0
 21 22  1  0  0  0
 22 23  2  0  0  0
 18 23  1  0  0  0
 23  1  1  0  0  0
  1  2  2  0  0  0
  2  3  1  0  0  0
  3  4  2  0  0  0
  3  5  1  0  0  0
  5  6  2  0  0  0
  6  7  1  0  0  0
  7  8  2  0  0  0
  8  9  1  0  0  0
  9 10  2  0  0  0
  5 10  1  0  0  0
 10 11  1  0  0  0
  1 11  1  0  0  0
  8 12  1  0  0  0
  6 13  1  0  0  0
  2 14  1  0  0  0
 21 24  1  0  0  0
 20 25  1  0  0  0
 12 15  1  0  0  0
 13 16  1  0  0  0
 14 17  1  0  0  0
 24 26  1  0  0  0
 25 27  1  0  0  0
M  END
> <minimizedAffinity>
-6.68469

$$$$
Quercetin


 27 29  0  0  0  0  0  0  0  0999 V2000
  -13.0832    3.9395    3.7422 C   0  0  0  0  0  0  0  0  0  0  0  0
  -12.3706    5.0788    3.8566 C   0  0  0  0  0  0  0  0  0  0  0  0
  -10.9973    4.9854    4.4214 C   0  0  0  0  0  0  0  0  0  0  0  0
  -10.2587    5.9588    4.5517 O   0  0  0  0  0  0  0  0  0  0  0  0
  -10.5295    3.6562    4.8309 C   0  0  0  0  0  0  0  0  0  0  0  0
   -9.2496    3.4626    5.3650 C   0  0  0  0  0  0  0  0  0  0  0  0
   -8.8314    2.1909    5.7489 C   0  0  0  0  0  0  0  0  0  0  0  0
   -9.7035    1.1170    5.5966 C   0  0  0  0  0  0  0  0  0  0  0  0
  -10.9783    1.2968    5.0660 C   0  0  0  0  0  0  0  0  0  0  0  0
  -11.3896    2.5726    4.6793 C   0  0  0  0  0  0  0  0  0  0  0  0
  -12.6496    2.6894    4.1518 O   0  0  0  0  0  0  0  0  0  0  0  0
   -9.3398   -0.1463    5.9585 O   0  0  0  0  0  0  0  0  0  0  0  0
   -8.3512    4.4817    5.5373 O   0  0  0  0  0  0  0  0  0  0  0  0
  -12.8236    6.3335    3.4879 O   0  0  0  0  0  0  0  0  0  0  0  0
   -8.4330   -0.1233    6.3092 H   0  0  0  0  0  0  0  0  0  0  0  0
   -8.7753    5.3177    5.2331 H   0  0  0  0  0  0  0  0  0  0  0  0
  -13.7766    6.2877    3.3038 H   0  0  0  0  0  0  0  0  0  0  0  0
  -15.5702    4.0656    3.9648 C   0  0  0  0  0  0  0  0  0  0  0  0
  -16.8557    4.0048    3.4172 C   0  0  0  0  0  0  0  0  0  0  0  0
  -16.9976    3.7981    2.0516 C   0  0  0  0  0  0  0  0  0  0  0  0
  -15.8737    3.6638    1.2396 C   0  0  0  0  0  0  0  0  0  0  0  0
  -14.5930    3.7225    1.7736 C   0  0  0  0  0  0  0  0  0  0  0  0
  -14.4318    3.9120    3.1512 C   0  0  0  0  0  0  0  0  0  0  0  0
  -16.0249    3.4635   -0.1027 O   0  0  0  0  0  0  0  0  0  0  0  0
  -18.2251    3.7163    1.4563 O   0  0  0  0  0  0  0  0  0  0  0  0
  -16.9925    3.4650   -0.2469 H   0  0  0  0  0  0  0  0  0  0  0  0
  -18.9069    3.8214    2.1425 H   0  0  0  0  0  0  0  0  0  0  0  0
 18 19  2  0  0  0
 19 20  1  0  0  0
 20 21  2  0  0  0
 21 22  1  0  0  0
 22 23  2  0  0  0
 18 23  1  0  0  0
 23  1  1  0  0  0
  1  2  2  0  0  0
  2  3  1  0  0  0
  3  4  2  0  0  0
  3  5  1  0  0  0
  5  6  2  0  0  0
  6  7  1  0  0  0
  7  8  2  0  0  0
  8  9  1  0  0  0
  9 10  2  0  0  0
  5 10  1  0  0  0
 10 11  1  0  0  0
  1 11  1  0  0  0
  8 12  1  0  0  0
  6 13  1  0  0  0
  2 14  1  0  0  0
 21 24  1  0  0  0
 20 25  1  0  0  0
 12 15  1  0  0  0
 13 16  1  0  0  0
 14 17  1  0  0  0
 24 26  1  0  0  0
 25 27  1  0  0  0
M  END
> <minimizedAffinity>
-6.47762

$$$$
Quercetin


 27 29  0  0  0  0  0  0  0  0999 V2000
  -13.0860    5.1752    2.6529 C   0  0  0  0  0  0  0  0  0  0  0  0
  -13.9073    4.9463    3.6979 C   0  0  0  0  0  0  0  0  0  0  0  0
  -15.1487    4.1652    3.4476 C   0  0  0  0  0  0  0  0  0  0  0  0
  -15.9545    3.8861    4.3323 O   0  0  0  0  0  0  0  0  0  0  0  0
  -15.3945    3.7192    2.0714 C   0  0  0  0  0  0  0  0  0  0  0  0
  -16.5294    2.9708    1.7356 C   0  0  0  0  0  0  0  0  0  0  0  0
  -16.7405    2.5627    0.4210 C   0  0  0  0  0  0  0  0  0  0  0  0
  -15.8099    2.9109   -0.5535 C   0  0  0  0  0  0  0  0  0  0  0  0
  -14.6771    3.6541   -0.2318 C   0  0  0  0  0  0  0  0  0  0  0  0
  -14.4692    4.0561    1.0879 C   0  0  0  0  0  0  0  0  0  0  0  0
  -13.3314    4.7747    1.3500 O   0  0  0  0  0  0  0  0  0  0  0  0
  -15.9732    2.5351   -1.8540 O   0  0  0  0  0  0  0  0  0  0  0  0
  -17.4768    2.6004    2.6525 O   0  0  0  0  0  0  0  0  0  0  0  0
  -13.6816    5.3865    4.9905 O   0  0  0  0  0  0  0  0  0  0  0  0
  -16.7985    2.0265   -1.9322 H   0  0  0  0  0  0  0  0  0  0  0  0
  -17.2076    2.9566    3.5311 H   0  0  0  0  0  0  0  0  0  0  0  0
  -12.9457    6.0211    4.9879 H   0  0  0  0  0  0  0  0  0  0  0  0
  -10.6497    5.2099    3.2129 C   0  0  0  0  0  0  0  0  0  0  0  0
   -9.4410    5.8910    3.3898 C   0  0  0  0  0  0  0  0  0  0  0  0
   -9.3945    7.2567    3.1440 C   0  0  0  0  0  0  0  0  0  0  0  0
  -10.5345    7.9342    2.7174 C   0  0  0  0  0  0  0  0  0  0  0  0
  -11.7395    7.2671    2.5389 C   0  0  0  0  0  0  0  0  0  0  0  0
  -11.8088    5.8935    2.7998 C   0  0  0  0  0  0  0  0  0  0  0  0
  -10.4769    9.2770    2.4759 O   0  0  0  0  0  0  0  0  0  0  0  0
   -8.2486    7.9828    3.3095 O   0  0  0  0  0  0  0  0  0  0  0  0
   -9.5476    9.5227    2.6580 H   0  0  0  0  0  0  0  0  0  0  0  0
   -7.5458    7.3824    3.6132 H   0  0  0  0  0  0  0  0  0  0  0  0
 18 19  2  0  0  0
 19 20  1  0  0  0
 20 21  2  0  0  0
 21 22  1  0  0  0
 22 23  2  0  0  0
 18 23  1  0  0  0
 23  1  1  0  0  0
  1  2  2  0  0  0
  2  3  1  0  0  0
  3  4  2  0  0  0
  3  5  1  0  0  0
  5  6  2  0  0  0
  6  7  1  0  0  0
  7  8  2  0  0  0
  8  9  1  0  0  0
  9 10  2  0  0  0
  5 10  1  0  0  0
 10 11  1  0  0  0
  1 11  1  0  0  0
  8 12  1  0  0  0
  6 13  1  0  0  0
  2 14  1  0  0  0
 21 24  1  0  0  0
 20 25  1  0  0  0
 12 15  1  0  0  0
 13 16  1  0  0  0
 14 17  1  0  0  0
 24 26  1  0  0  0
 25 27  1  0  0  0
M  END
> <minimizedAffinity>
-6.19553

$$$$
Quercetin


 27 29  0  0  0  0  0  0  0  0999 V2000
  -16.5194    2.2806    0.4801 C   0  0  0  0  0  0  0  0  0  0  0  0
  -16.3544    2.0706   -0.8419 C   0  0  0  0  0  0  0  0  0  0  0  0
  -16.9792    0.8580   -1.4359 C   0  0  0  0  0  0  0  0  0  0  0  0
  -16.9046    0.5830   -2.6313 O   0  0  0  0  0  0  0  0  0  0  0  0
  -17.7138   -0.0310   -0.5285 C   0  0  0  0  0  0  0  0  0  0  0  0
  -18.3446   -1.1920   -0.9921 C   0  0  0  0  0  0  0  0  0  0  0  0
  -19.0327   -2.0205   -0.1091 C   0  0  0  0  0  0  0  0  0  0  0  0
  -19.0822   -1.6797    1.2393 C   0  0  0  0  0  0  0  0  0  0  0  0
  -18.4596   -0.5274    1.7123 C   0  0  0  0  0  0  0  0  0  0  0  0
  -17.7756    0.3006    0.8218 C   0  0  0  0  0  0  0  0  0  0  0  0
  -17.1922    1.4280    1.3397 O   0  0  0  0  0  0  0  0  0  0  0  0
  -19.7429   -2.4593    2.1421 O   0  0  0  0  0  0  0  0  0  0  0  0
  -18.3282   -1.5757   -2.3067 O   0  0  0  0  0  0  0  0  0  0  0  0
  -15.6434    2.9013   -1.6903 O   0  0  0  0  0  0  0  0  0  0  0  0
  -20.1260   -3.2224    1.6764 H   0  0  0  0  0  0  0  0  0  0  0  0
  -17.8076   -0.9095   -2.8130 H   0  0  0  0  0  0  0  0  0  0  0  0
  -15.1466    3.5481   -1.1618 H   0  0  0  0  0  0  0  0  0  0  0  0
  -14.6089    3.5843    1.4292 C   0  0  0  0  0  0  0  0  0  0  0  0
  -14.0986    4.6971    2.1055 C   0  0  0  0  0  0  0  0  0  0  0  0
  -14.9700    5.7022    2.5031 C   0  0  0  0  0  0  0  0  0  0  0  0
  -16.3309    5.6058    2.2218 C   0  0  0  0  0  0  0  0  0  0  0  0
  -16.8476    4.5049    1.5510 C   0  0  0  0  0  0  0  0  0  0  0  0
  -15.9859    3.4736    1.1591 C   0  0  0  0  0  0  0  0  0  0  0  0
  -17.1787    6.6015    2.6151 O   0  0  0  0  0  0  0  0  0  0  0  0
  -14.5376    6.8091    3.1780 O   0  0  0  0  0  0  0  0  0  0  0  0
  -16.6026    7.2603    3.0524 H   0  0  0  0  0  0  0  0  0  0  0  0
  -13.5760    6.7345    3.3061 H   0  0  0  0  0  0  0  0  0  0  0  0
 18 19  2  0  0  0
 19 20  1  0  0  0
 20 21  2  0  0  0
 21 22  1  0  0  0
 22 23  2  0  0  0
 18 23  1  0  0  0
 23  1  1  0  0  0
  1  2  2  0  0  0
  2  3  1  0  0  0
  3  4  2  0  0  0
  3  5  1  0  0  0
  5  6  2  0  0  0
  6  7  1  0  0  0
  7  8  2  0  0  0
  8  9  1  0  0  0
  9 10  2  0  0  0
  5 10  1  0  0  0
 10 11  1  0  0  0
  1 11  1  0  0  0
  8 12  1  0  0  0
  6 13  1  0  0  0
  2 14  1  0  0  0
 21 24  1  0  0  0
 20 25  1  0  0  0
 12 15  1  0  0  0
 13 16  1  0  0  0
 14 17  1  0  0  0
 24 26  1  0  0  0
 25 27  1  0  0  0
M  END
> <minimizedAffinity>
-6.19234

$$$$
Quercetin


 27 29  0  0  0  0  0  0  0  0999 V2000
  -13.9400    4.9876    1.4141 C   0  0  0  0  0  0  0  0  0  0  0  0
  -13.3744    5.7401    0.4483 C   0  0  0  0  0  0  0  0  0  0  0  0
  -12.0048    6.2681    0.6919 C   0  0  0  0  0  0  0  0  0  0  0  0
  -11.3932    6.9481   -0.1288 O   0  0  0  0  0  0  0  0  0  0  0  0
  -11.3802    5.9440    1.9795 C   0  0  0  0  0  0  0  0  0  0  0  0
  -10.0907    6.3862    2.3000 C   0  0  0  0  0  0  0  0  0  0  0  0
   -9.5222    6.0672    3.5306 C   0  0  0  0  0  0  0  0  0  0  0  0
  -10.2538    5.3057    4.4371 C   0  0  0  0  0  0  0  0  0  0  0  0
  -11.5366    4.8595    4.1296 C   0  0  0  0  0  0  0  0  0  0  0  0
  -12.0987    5.1787    2.8933 C   0  0  0  0  0  0  0  0  0  0  0  0
  -13.3591    4.7029    2.6388 O   0  0  0  0  0  0  0  0  0  0  0  0
   -9.7402    4.9685    5.6544 O   0  0  0  0  0  0  0  0  0  0  0  0
   -9.3264    7.1375    1.4475 O   0  0  0  0  0  0  0  0  0  0  0  0
  -13.9755    6.0604   -0.7565 O   0  0  0  0  0  0  0  0  0  0  0  0
   -8.8461    5.3433    5.7322 H   0  0  0  0  0  0  0  0  0  0  0  0
   -9.8478    7.2925    0.6257 H   0  0  0  0  0  0  0  0  0  0  0  0
  -14.9140    5.8109   -0.7214 H   0  0  0  0  0  0  0  0  0  0  0  0
  -16.3797    4.8899    1.9517 C   0  0  0  0  0  0  0  0  0  0  0  0
  -17.6388    4.2924    1.8350 C   0  0  0  0  0  0  0  0  0  0  0  0
  -17.7850    3.1832    1.0128 C   0  0  0  0  0  0  0  0  0  0  0  0
  -16.6936    2.6812    0.3075 C   0  0  0  0  0  0  0  0  0  0  0  0
  -15.4392    3.2672    0.4167 C   0  0  0  0  0  0  0  0  0  0  0  0
  -15.2699    4.3751    1.2555 C   0  0  0  0  0  0  0  0  0  0  0  0
  -16.8492    1.5913   -0.5004 O   0  0  0  0  0  0  0  0  0  0  0  0
  -18.9848    2.5458    0.8648 O   0  0  0  0  0  0  0  0  0  0  0  0
  -17.7969    1.3601   -0.4262 H   0  0  0  0  0  0  0  0  0  0  0  0
  -19.6444    3.0007    1.4167 H   0  0  0  0  0  0  0  0  0  0  0  0
 18 19  2  0  0  0
 19 20  1  0  0  0
 20 21  2  0  0  0
 21 22  1  0  0  0
 22 23  2  0  0  0
 18 23  1  0  0  0
 23  1  1  0  0  0
  1  2  2  0  0  0
  2  3  1  0  0  0
  3  4  2  0  0  0
  3  5  1  0  0  0
  5  6  2  0  0  0
  6  7  1  0  0  0
  7  8  2  0  0  0
  8  9  1  0  0  0
  9 10  2  0  0  0
  5 10  1  0  0  0
 10 11  1  0  0  0
  1 11  1  0  0  0
  8 12  1  0  0  0
  6 13  1  0  0  0
  2 14  1  0  0  0
 21 24  1  0  0  0
 20 25  1  0  0  0
 12 15  1  0  0  0
 13 16  1  0  0  0
 14 17  1  0  0  0
 24 26  1  0  0  0
 25 27  1  0  0  0
M  END
> <minimizedAffinity>
-5.84385

$$$$
