Quercetin


 27 29  0  0  0  0  0  0  0  0999 V2000
  -17.7722   -7.0759   10.1080 C   0  0  0  0  0  0  0  0  0  0  0  0
  -18.6525   -6.1124   10.4483 C   0  0  0  0  0  0  0  0  0  0  0  0
  -18.4516   -4.7541    9.8751 C   0  0  0  0  0  0  0  0  0  0  0  0
  -19.2049   -3.8112   10.1063 O   0  0  0  0  0  0  0  0  0  0  0  0
  -17.2933   -4.5622    8.9948 C   0  0  0  0  0  0  0  0  0  0  0  0
  -17.0232   -3.3240    8.3991 C   0  0  0  0  0  0  0  0  0  0  0  0
  -15.9152   -3.1679    7.5701 C   0  0  0  0  0  0  0  0  0  0  0  0
  -15.0797   -4.2579    7.3445 C   0  0  0  0  0  0  0  0  0  0  0  0
  -15.3383   -5.4943    7.9306 C   0  0  0  0  0  0  0  0  0  0  0  0
  -16.4525   -5.6453    8.7565 C   0  0  0  0  0  0  0  0  0  0  0  0
  -16.6656   -6.8873    9.2967 O   0  0  0  0  0  0  0  0  0  0  0  0
  -13.9827   -4.1540    6.5414 O   0  0  0  0  0  0  0  0  0  0  0  0
  -17.8101   -2.2189    8.5859 O   0  0  0  0  0  0  0  0  0  0  0  0
  -19.7321   -6.2929   11.2953 O   0  0  0  0  0  0  0  0  0  0  0  0
  -13.9266   -3.2438    6.2034 H   0  0  0  0  0  0  0  0  0  0  0  0
  -18.5467   -2.4670    9.1919 H   0  0  0  0  0  0  0  0  0  0  0  0
  -19.6533   -7.1566   11.7335 H   0  0  0  0  0  0  0  0  0  0  0  0
  -17.6602   -9.5407    9.7049 C   0  0  0  0  0  0  0  0  0  0  0  0
  -17.8203  -10.8625   10.1330 C   0  0  0  0  0  0  0  0  0  0  0  0
  -18.2200  -11.1038   11.4406 C   0  0  0  0  0  0  0  0  0  0  0  0
  -18.4473  -10.0429   12.3142 C   0  0  0  0  0  0  0  0  0  0  0  0
  -18.2913   -8.7269   11.8988 C   0  0  0  0  0  0  0  0  0  0  0  0
  -17.9067   -8.4649   10.5786 C   0  0  0  0  0  0  0  0  0  0  0  0
  -18.8375  -10.2918   13.5990 O   0  0  0  0  0  0  0  0  0  0  0  0
  -18.4066  -12.3709   11.9176 O   0  0  0  0  0  0  0  0  0  0  0  0
  -18.8736  -11.2673   13.6633 H   0  0  0  0  0  0  0  0  0  0  0  0
  -18.2180  -13.0002   11.1999 H   0  0  0  0  0  0  0  0  0  0  0  0
 18 19  2  0  0  0
 19 20  1  0  0  0
 20 21  2  0  0  0
 21 22  1  0  0  0
 22 23  2  0  0  0
 18 23  1  0  0  0
 23  1  1  0  0  0
  1  2  2  0  0  0
  2  3  1  0  0  0
  3  4  2  0  0  0
  3  5  1  0  0  0
  5  6  2  0  0  0
  6  7  1  0  0  0
  7  8  2  0  0  0
  8  9  1  0  0  0
  9 10  2  0  0  0
  5 10  1  0  0  0
 10 11  1  0  0  0
  1 11  1  0  0  0
  8 12  1  0  0  0
  6 13  1  0  0  0
  2 14  1  0  0  0
 21 24  1  0  0  0
 20 25  1  0  0  0
 12 15  1  0  0  0
 13 16  1  0  0  0
 14 17  1  0  0  0
 24 26  1  0  0  0
 25 27  1  0  0  0
M  END
> <minimizedAffinity>
-6.49417

$$$$
Quercetin


 27 29  0  0  0  0  0  0  0  0999 V2000
  -17.1773   -7.6975    9.3645 C   0  0  0  0  0  0  0  0  0  0  0  0
  -16.1251   -7.7290    8.5214 C   0  0  0  0  0  0  0  0  0  0  0  0
  -15.6517   -6.4381    7.9528 C   0  0  0  0  0  0  0  0  0  0  0  0
  -14.6918   -6.3538    7.1902 O   0  0  0  0  0  0  0  0  0  0  0  0
  -16.3830   -5.2263    8.3400 C   0  0  0  0  0  0  0  0  0  0  0  0
  -16.0098   -3.9627    7.8659 C   0  0  0  0  0  0  0  0  0  0  0  0
  -16.7229   -2.8286    8.2464 C   0  0  0  0  0  0  0  0  0  0  0  0
  -17.8119   -2.9692    9.1015 C   0  0  0  0  0  0  0  0  0  0  0  0
  -18.1923   -4.2203    9.5802 C   0  0  0  0  0  0  0  0  0  0  0  0
  -17.4710   -5.3520    9.1988 C   0  0  0  0  0  0  0  0  0  0  0  0
  -17.8818   -6.5560    9.7098 O   0  0  0  0  0  0  0  0  0  0  0  0
  -18.5413   -1.8889    9.5015 O   0  0  0  0  0  0  0  0  0  0  0  0
  -14.9483   -3.7657    7.0233 O   0  0  0  0  0  0  0  0  0  0  0  0
  -15.4511   -8.8770    8.1429 O   0  0  0  0  0  0  0  0  0  0  0  0
  -18.1662   -1.0891    9.0946 H   0  0  0  0  0  0  0  0  0  0  0  0
  -14.5420   -4.6433    6.8332 H   0  0  0  0  0  0  0  0  0  0  0  0
  -15.9556   -9.6546    8.4349 H   0  0  0  0  0  0  0  0  0  0  0  0
  -17.9679  -10.0674    9.2688 C   0  0  0  0  0  0  0  0  0  0  0  0
  -18.4931  -11.2111    9.8787 C   0  0  0  0  0  0  0  0  0  0  0  0
  -18.7361  -11.1949   11.2456 C   0  0  0  0  0  0  0  0  0  0  0  0
  -18.4500  -10.0579   11.9979 C   0  0  0  0  0  0  0  0  0  0  0  0
  -17.9284   -8.9171   11.4017 C   0  0  0  0  0  0  0  0  0  0  0  0
  -17.6945   -8.9097   10.0216 C   0  0  0  0  0  0  0  0  0  0  0  0
  -18.6903  -10.0539   13.3421 O   0  0  0  0  0  0  0  0  0  0  0  0
  -19.2596  -12.2746   11.8999 O   0  0  0  0  0  0  0  0  0  0  0  0
  -19.0420  -10.9463   13.5345 H   0  0  0  0  0  0  0  0  0  0  0  0
  -19.4113  -12.9832   11.2507 H   0  0  0  0  0  0  0  0  0  0  0  0
 18 19  2  0  0  0
 19 20  1  0  0  0
 20 21  2  0  0  0
 21 22  1  0  0  0
 22 23  2  0  0  0
 18 23  1  0  0  0
 23  1  1  0  0  0
  1  2  2  0  0  0
  2  3  1  0  0  0
  3  4  2  0  0  0
  3  5  1  0  0  0
  5  6  2  0  0  0
  6  7  1  0  0  0
  7  8  2  0  0  0
  8  9  1  0  0  0
  9 10  2  0  0  0
  5 10  1  0  0  0
 10 11  1  0  0  0
  1 11  1  0  0  0
  8 12  1  0  0  0
  6 13  1  0  0  0
  2 14  1  0  0  0
 21 24  1  0  0  0
 20 25  1  0  0  0
 12 15  1  0  0  0
 13 16  1  0  0  0
 14 17  1  0  0  0
 24 26  1  0  0  0
 25 27  1  0  0  0
M  END
> <minimizedAffinity>
-6.39035

$$$$
Quercetin


 27 29  0  0  0  0  0  0  0  0999 V2000
  -12.6766   -3.4460    8.3901 C   0  0  0  0  0  0  0  0  0  0  0  0
  -13.8848   -3.0966    7.9031 C   0  0  0  0  0  0  0  0  0  0  0  0
  -14.9106   -4.1646    7.7585 C   0  0  0  0  0  0  0  0  0  0  0  0
  -16.0468   -3.9503    7.3423 O   0  0  0  0  0  0  0  0  0  0  0  0
  -14.5196   -5.5264    8.1406 C   0  0  0  0  0  0  0  0  0  0  0  0
  -15.4160   -6.5984    8.0499 C   0  0  0  0  0  0  0  0  0  0  0  0
  -15.0184   -7.8819    8.4159 C   0  0  0  0  0  0  0  0  0  0  0  0
  -13.7185   -8.0841    8.8701 C   0  0  0  0  0  0  0  0  0  0  0  0
  -12.8183   -7.0259    8.9654 C   0  0  0  0  0  0  0  0  0  0  0  0
  -13.2242   -5.7417    8.6014 C   0  0  0  0  0  0  0  0  0  0  0  0
  -12.3011   -4.7359    8.7271 O   0  0  0  0  0  0  0  0  0  0  0  0
  -13.2828   -9.3223    9.2392 O   0  0  0  0  0  0  0  0  0  0  0  0
  -16.7053   -6.4576    7.6102 O   0  0  0  0  0  0  0  0  0  0  0  0
  -14.2426   -1.8144    7.5247 O   0  0  0  0  0  0  0  0  0  0  0  0
  -14.0093   -9.9581    9.1226 H   0  0  0  0  0  0  0  0  0  0  0  0
  -16.8486   -5.5096    7.3820 H   0  0  0  0  0  0  0  0  0  0  0  0
  -13.4482   -1.2552    7.5003 H   0  0  0  0  0  0  0  0  0  0  0  0
  -10.6835   -2.1595    7.6007 C   0  0  0  0  0  0  0  0  0  0  0  0
   -9.6429   -1.2516    7.8218 C   0  0  0  0  0  0  0  0  0  0  0  0
   -9.5346   -0.6397    9.0634 C   0  0  0  0  0  0  0  0  0  0  0  0
  -10.4568   -0.9202   10.0691 C   0  0  0  0  0  0  0  0  0  0  0  0
  -11.4935   -1.8203    9.8596 C   0  0  0  0  0  0  0  0  0  0  0  0
  -11.6068   -2.4602    8.6198 C   0  0  0  0  0  0  0  0  0  0  0  0
  -10.3425   -0.3106   11.2857 O   0  0  0  0  0  0  0  0  0  0  0  0
   -8.5343    0.2470    9.3479 O   0  0  0  0  0  0  0  0  0  0  0  0
   -9.5613    0.2720   11.1995 H   0  0  0  0  0  0  0  0  0  0  0  0
   -7.9705    0.3371    8.5601 H   0  0  0  0  0  0  0  0  0  0  0  0
 18 19  2  0  0  0
 19 20  1  0  0  0
 20 21  2  0  0  0
 21 22  1  0  0  0
 22 23  2  0  0  0
 18 23  1  0  0  0
 23  1  1  0  0  0
  1  2  2  0  0  0
  2  3  1  0  0  0
  3  4  2  0  0  0
  3  5  1  0  0  0
  5  6  2  0  0  0
  6  7  1  0  0  0
  7  8  2  0  0  0
  8  9  1  0  0  0
  9 10  2  0  0  0
  5 10  1  0  0  0
 10 11  1  0  0  0
  1 11  1  0  0  0
  8 12  1  0  0  0
  6 13  1  0  0  0
  2 14  1  0  0  0
 21 24  1  0  0  0
 20 25  1  0  0  0
 12 15  1  0  0  0
 13 16  1  0  0  0
 14 17  1  0  0  0
 24 26  1  0  0  0
 25 27  1  0  0  0
M  END
> <minimizedAffinity>
-6.33583

$$$$
Quercetin


 27 29  0  0  0  0  0  0  0  0999 V2000
  -14.2867   -5.1330    7.8729 C   0  0  0  0  0  0  0  0  0  0  0  0
  -14.6083   -6.0870    8.7704 C   0  0  0  0  0  0  0  0  0  0  0  0
  -15.5085   -7.1847    8.3248 C   0  0  0  0  0  0  0  0  0  0  0  0
  -15.8485   -8.1112    9.0569 O   0  0  0  0  0  0  0  0  0  0  0  0
  -15.9952   -7.1331    6.9414 C   0  0  0  0  0  0  0  0  0  0  0  0
  -16.8392   -8.1238    6.4245 C   0  0  0  0  0  0  0  0  0  0  0  0
  -17.2896   -8.0494    5.1088 C   0  0  0  0  0  0  0  0  0  0  0  0
  -16.8914   -6.9765    4.3168 C   0  0  0  0  0  0  0  0  0  0  0  0
  -16.0518   -5.9856    4.8193 C   0  0  0  0  0  0  0  0  0  0  0  0
  -15.6005   -6.0684    6.1368 C   0  0  0  0  0  0  0  0  0  0  0  0
  -14.7664   -5.0725    6.5749 O   0  0  0  0  0  0  0  0  0  0  0  0
  -17.3066   -6.8597    3.0233 O   0  0  0  0  0  0  0  0  0  0  0  0
  -17.2623   -9.2003    7.1577 O   0  0  0  0  0  0  0  0  0  0  0  0
  -14.1632   -6.1205   10.0804 O   0  0  0  0  0  0  0  0  0  0  0  0
  -17.8814   -7.6144    2.8091 H   0  0  0  0  0  0  0  0  0  0  0  0
  -16.8774   -9.1246    8.0618 H   0  0  0  0  0  0  0  0  0  0  0  0
  -13.7366   -5.2741   10.2945 H   0  0  0  0  0  0  0  0  0  0  0  0
  -11.9850   -4.2720    8.3330 C   0  0  0  0  0  0  0  0  0  0  0  0
  -11.1073   -3.2378    8.6735 C   0  0  0  0  0  0  0  0  0  0  0  0
  -11.6141   -1.9596    8.8664 C   0  0  0  0  0  0  0  0  0  0  0  0
  -12.9762   -1.7119    8.7122 C   0  0  0  0  0  0  0  0  0  0  0  0
  -13.8561   -2.7320    8.3745 C   0  0  0  0  0  0  0  0  0  0  0  0
  -13.3648   -4.0304    8.1942 C   0  0  0  0  0  0  0  0  0  0  0  0
  -13.4635   -0.4504    8.9017 O   0  0  0  0  0  0  0  0  0  0  0  0
  -10.8122   -0.9083    9.2123 O   0  0  0  0  0  0  0  0  0  0  0  0
  -12.6775    0.0896    9.1201 H   0  0  0  0  0  0  0  0  0  0  0  0
   -9.8977   -1.2317    9.2888 H   0  0  0  0  0  0  0  0  0  0  0  0
 18 19  2  0  0  0
 19 20  1  0  0  0
 20 21  2  0  0  0
 21 22  1  0  0  0
 22 23  2  0  0  0
 18 23  1  0  0  0
 23  1  1  0  0  0
  1  2  2  0  0  0
  2  3  1  0  0  0
  3  4  2  0  0  0
  3  5  1  0  0  0
  5  6  2  0  0  0
  6  7  1  0  0  0
  7  8  2  0  0  0
  8  9  1  0  0  0
  9 10  2  0  0  0
  5 10  1  0  0  0
 10 11  1  0  0  0
  1 11  1  0  0  0
  8 12  1  0  0  0
  6 13  1  0  0  0
  2 14  1  0  0  0
 21 24  1  0  0  0
 20 25  1  0  0  0
 12 15  1  0  0  0
 13 16  1  0  0  0
 14 17  1  0  0  0
 24 26  1  0  0  0
 25 27  1  0  0  0
M  END
> <minimizedAffinity>
-6.14122

$$$$
Quercetin


 27 29  0  0  0  0  0  0  0  0999 V2000
  -15.4981   -4.2162    7.6928 C   0  0  0  0  0  0  0  0  0  0  0  0
  -15.4278   -4.6189    6.4075 C   0  0  0  0  0  0  0  0  0  0  0  0
  -14.2656   -4.1614    5.5990 C   0  0  0  0  0  0  0  0  0  0  0  0
  -14.0970   -4.4848    4.4255 O   0  0  0  0  0  0  0  0  0  0  0  0
  -13.2909   -3.2865    6.2607 C   0  0  0  0  0  0  0  0  0  0  0  0
  -12.1588   -2.8104    5.5879 C   0  0  0  0  0  0  0  0  0  0  0  0
  -11.2508   -1.9786    6.2383 C   0  0  0  0  0  0  0  0  0  0  0  0
  -11.4856   -1.6256    7.5639 C   0  0  0  0  0  0  0  0  0  0  0  0
  -12.6073   -2.0934    8.2437 C   0  0  0  0  0  0  0  0  0  0  0  0
  -13.5108   -2.9300    7.5879 C   0  0  0  0  0  0  0  0  0  0  0  0
  -14.5905   -3.3706    8.3088 O   0  0  0  0  0  0  0  0  0  0  0  0
  -10.6260   -0.8134    8.2425 O   0  0  0  0  0  0  0  0  0  0  0  0
  -11.8782   -3.1249    4.2849 O   0  0  0  0  0  0  0  0  0  0  0  0
  -16.3603   -5.4276    5.7816 O   0  0  0  0  0  0  0  0  0  0  0  0
   -9.8952   -0.5657    7.6505 H   0  0  0  0  0  0  0  0  0  0  0  0
  -12.5979   -3.7087    3.9496 H   0  0  0  0  0  0  0  0  0  0  0  0
  -17.1439   -5.5108    6.3502 H   0  0  0  0  0  0  0  0  0  0  0  0
  -17.6323   -3.7756    8.9183 C   0  0  0  0  0  0  0  0  0  0  0  0
  -18.6430   -4.1674    9.8020 C   0  0  0  0  0  0  0  0  0  0  0  0
  -18.5997   -5.4406   10.3539 C   0  0  0  0  0  0  0  0  0  0  0  0
  -17.5687   -6.3168   10.0222 C   0  0  0  0  0  0  0  0  0  0  0  0
  -16.5603   -5.9373    9.1460 C   0  0  0  0  0  0  0  0  0  0  0  0
  -16.5784   -4.6508    8.5945 C   0  0  0  0  0  0  0  0  0  0  0  0
  -17.5374   -7.5678   10.5689 O   0  0  0  0  0  0  0  0  0  0  0  0
  -19.5492   -5.8805   11.2330 O   0  0  0  0  0  0  0  0  0  0  0  0
  -18.3335   -7.6114   11.1358 H   0  0  0  0  0  0  0  0  0  0  0  0
  -20.1942   -5.1653   11.3717 H   0  0  0  0  0  0  0  0  0  0  0  0
 18 19  2  0  0  0
 19 20  1  0  0  0
 20 21  2  0  0  0
 21 22  1  0  0  0
 22 23  2  0  0  0
 18 23  1  0  0  0
 23  1  1  0  0  0
  1  2  2  0  0  0
  2  3  1  0  0  0
  3  4  2  0  0  0
  3  5  1  0  0  0
  5  6  2  0  0  0
  6  7  1  0  0  0
  7  8  2  0  0  0
  8  9  1  0  0  0
  9 10  2  0  0  0
  5 10  1  0  0  0
 10 11  1  0  0  0
  1 11  1  0  0  0
  8 12  1  0  0  0
  6 13  1  0  0  0
  2 14  1  0  0  0
 21 24  1  0  0  0
 20 25  1  0  0  0
 12 15  1  0  0  0
 13 16  1  0  0  0
 14 17  1  0  0  0
 24 26  1  0  0  0
 25 27  1  0  0  0
M  END
> <minimizedAffinity>
-6.11872

$$$$
