1AZ8_lig_vina_out.pdbqt
 OpenBabel10152116403D

 32 33  0  0  1  0  0  0  0  0999 V2000
   29.5520   11.5160   17.8410 C   0  0  1  0  0  3  0  0  0  0  0  0
   29.2140   12.9300   17.9570 C   0  0  0  0  0  0  0  0  0  0  0  0
   28.7290   13.5380   19.1310 C   0  0  0  0  0  3  0  0  0  0  0  0
   28.4340   14.9020   19.1390 C   0  0  0  0  0  3  0  0  0  0  0  0
   28.6240   15.6380   17.9760 C   0  0  0  0  0  3  0  0  0  0  0  0
   29.1490   15.0300   16.8310 C   0  0  0  0  0  0  0  0  0  0  0  0
   29.4360   13.6830   16.8210 C   0  0  0  0  0  3  0  0  0  0  0  0
   29.3760   15.8210   15.5860 C   0  0  0  0  0  0  0  0  0  0  0  0
   30.1040   15.2880   14.6470 N   0  0  0  0  0  0  0  0  0  0  0  0
   30.4610   14.3780   14.7580 H   0  0  0  0  0  0  0  0  0  0  0  0
   28.9140   17.0370   15.4080 N   0  0  0  0  0  0  0  0  0  0  0  0
   29.0900   17.5110   14.5640 H   0  0  0  0  0  0  0  0  0  0  0  0
   28.3910   17.4730   16.1190 H   0  0  0  0  0  0  0  0  0  0  0  0
   31.0150   11.3850   18.2170 C   0  0  0  0  0  2  0  0  0  0  0  0
   31.4860    9.9540   18.3740 C   0  0  0  0  0  2  0  0  0  0  0  0
   32.9560    9.9040   18.0240 C   0  0  0  0  0  0  0  0  0  0  0  0
   33.3220    9.9760   16.6850 C   0  0  0  0  0  3  0  0  0  0  0  0
   34.6760    9.9880   16.3400 C   0  0  0  0  0  3  0  0  0  0  0  0
   35.6840    9.8630   17.3170 C   0  0  0  0  0  0  0  0  0  0  0  0
   35.3040    9.7600   18.6660 C   0  0  0  0  0  3  0  0  0  0  0  0
   33.9500    9.8050   19.0130 C   0  0  0  0  0  3  0  0  0  0  0  0
   37.1450    9.8080   16.8850 C   0  0  0  0  0  0  0  0  0  0  0  0
   37.9920   10.7330   17.2950 N   0  0  0  0  0  0  0  0  0  0  0  0
   37.6790   11.4670   17.8700 H   0  0  0  0  0  0  0  0  0  0  0  0
   37.6200    8.8340   16.1050 N   0  0  0  0  0  0  0  0  0  0  0  0
   38.2800    8.1950   16.4610 H   0  0  0  0  0  0  0  0  0  0  0  0
   37.3100    8.7530   15.1740 H   0  0  0  0  0  0  0  0  0  0  0  0
   28.6220   10.5600   18.6270 C   0  0  0  0  0  2  0  0  0  0  0  0
   27.1620   10.4670   18.1460 C   0  0  0  0  0  0  0  0  0  0  0  0
   26.8850    9.8620   17.1110 O   0  0  0  0  0  0  0  0  0  0  0  0
   26.1850   11.0350   18.9370 O   0  0  0  0  0  0  0  0  0  0  0  0
   25.9660   10.7480   20.3140 C   0  0  0  0  0  1  0  0  0  0  0  0
  1  2  1  0  0  0  0
  1 14  1  1  0  0  0
  1 28  1  0  0  0  0
  2  3  1  0  0  0  0
  3  4  2  0  0  0  0
  5  4  1  0  0  0  0
  6  5  2  0  0  0  0
  7  6  1  0  0  0  0
  7  2  2  0  0  0  0
  8  6  1  0  0  0  0
  9 10  1  0  0  0  0
  9  8  2  0  0  0  0
 11  8  1  0  0  0  0
 11 13  1  0  0  0  0
 12 11  1  0  0  0  0
 14 15  1  0  0  0  0
 16 15  1  0  0  0  0
 16 21  1  0  0  0  0
 17 16  2  0  0  0  0
 18 17  1  0  0  0  0
 18 19  2  0  0  0  0
 19 20  1  0  0  0  0
 20 21  2  0  0  0  0
 22 23  2  0  0  0  0
 22 19  1  0  0  0  0
 23 24  1  0  0  0  0
 25 26  1  0  0  0  0
 25 22  1  0  0  0  0
 27 25  1  0  0  0  0
 29 28  1  0  0  0  0
 29 31  1  0  0  0  0
 30 29  2  0  0  0  0
 31 32  1  0  0  0  0
M  END
>  <Pose>
1

>  <Score>
-7.746

$$$$
1AZ8_lig_vina_out.pdbqt
 OpenBabel10152116403D

 32 33  0  0  1  0  0  0  0  0999 V2000
   29.6290   11.5670   18.2210 C   0  0  1  0  0  3  0  0  0  0  0  0
   29.2580   12.9790   18.2060 C   0  0  0  0  0  0  0  0  0  0  0  0
   28.7090   13.6680   19.3040 C   0  0  0  0  0  3  0  0  0  0  0  0
   28.3860   15.0200   19.1880 C   0  0  0  0  0  3  0  0  0  0  0  0
   28.6150   15.6640   17.9780 C   0  0  0  0  0  3  0  0  0  0  0  0
   29.2040   14.9790   16.9110 C   0  0  0  0  0  0  0  0  0  0  0  0
   29.5170   13.6420   17.0230 C   0  0  0  0  0  3  0  0  0  0  0  0
   29.4720   15.6720   15.6170 C   0  0  0  0  0  0  0  0  0  0  0  0
   29.0010   16.8760   15.4590 N   0  0  0  0  0  0  0  0  0  0  0  0
   28.5100   17.3130   16.1920 H   0  0  0  0  0  0  0  0  0  0  0  0
   30.1210   15.1160   14.6210 N   0  0  0  0  0  0  0  0  0  0  0  0
   30.4180   15.6650   13.8600 H   0  0  0  0  0  0  0  0  0  0  0  0
   30.3120   14.1510   14.6360 H   0  0  0  0  0  0  0  0  0  0  0  0
   31.1230   11.5060   17.9690 C   0  0  0  0  0  2  0  0  0  0  0  0
   31.5790   10.2410   17.2730 C   0  0  0  0  0  2  0  0  0  0  0  0
   33.0830   10.1540   17.3980 C   0  0  0  0  0  0  0  0  0  0  0  0
   33.6480   10.2330   18.6660 C   0  0  0  0  0  3  0  0  0  0  0  0
   35.0310   10.0990   18.8140 C   0  0  0  0  0  3  0  0  0  0  0  0
   35.8780    9.9490   17.6970 C   0  0  0  0  0  0  0  0  0  0  0  0
   35.3000    9.9010   16.4170 C   0  0  0  0  0  3  0  0  0  0  0  0
   33.9110    9.9790   16.2770 C   0  0  0  0  0  3  0  0  0  0  0  0
   37.3870    9.8800   17.9040 C   0  0  0  0  0  0  0  0  0  0  0  0
   38.1940   10.5710   17.1230 N   0  0  0  0  0  0  0  0  0  0  0  0
   37.8240   11.1230   16.3970 H   0  0  0  0  0  0  0  0  0  0  0  0
   37.9400    9.1470   18.8740 N   0  0  0  0  0  0  0  0  0  0  0  0
   38.2520    9.5790   19.7010 H   0  0  0  0  0  0  0  0  0  0  0  0
   38.0340    8.1730   18.7610 H   0  0  0  0  0  0  0  0  0  0  0  0
   29.1800   10.7920   19.4830 C   0  0  0  0  0  2  0  0  0  0  0  0
   28.1680    9.6510   19.2700 C   0  0  0  0  0  0  0  0  0  0  0  0
   28.4230    8.5120   19.6610 O   0  0  0  0  0  0  0  0  0  0  0  0
   26.9610    9.9620   18.6810 O   0  0  0  0  0  0  0  0  0  0  0  0
   26.0140   10.9000   19.1800 C   0  0  0  0  0  1  0  0  0  0  0  0
  1 14  1  1  0  0  0
  1 28  1  0  0  0  0
  2  1  1  0  0  0  0
  2  3  1  0  0  0  0
  4  3  2  0  0  0  0
  5  4  1  0  0  0  0
  6  7  1  0  0  0  0
  6  5  2  0  0  0  0
  7  2  2  0  0  0  0
  8  6  1  0  0  0  0
  9  8  2  0  0  0  0
  9 10  1  0  0  0  0
 11 13  1  0  0  0  0
 11  8  1  0  0  0  0
 12 11  1  0  0  0  0
 15 16  1  0  0  0  0
 15 14  1  0  0  0  0
 16 17  1  0  0  0  0
 17 18  2  0  0  0  0
 19 22  1  0  0  0  0
 19 18  1  0  0  0  0
 20 19  2  0  0  0  0
 21 20  1  0  0  0  0
 21 16  2  0  0  0  0
 22 25  1  0  0  0  0
 23 22  2  0  0  0  0
 24 23  1  0  0  0  0
 25 26  1  0  0  0  0
 27 25  1  0  0  0  0
 29 28  1  0  0  0  0
 29 30  2  0  0  0  0
 31 32  1  0  0  0  0
 31 29  1  0  0  0  0
M  END
>  <Pose>
2

>  <Score>
-7.561

$$$$
1AZ8_lig_vina_out.pdbqt
 OpenBabel10152116403D

 32 33  0  0  1  0  0  0  0  0999 V2000
   28.7110   11.4560   17.9520 C   0  0  1  0  0  3  0  0  0  0  0  0
   28.5670   12.9070   18.0070 C   0  0  0  0  0  0  0  0  0  0  0  0
   28.0280   13.6110   19.1010 C   0  0  0  0  0  3  0  0  0  0  0  0
   27.9310   15.0020   19.0560 C   0  0  0  0  0  3  0  0  0  0  0  0
   28.3720   15.6700   17.9190 C   0  0  0  0  0  3  0  0  0  0  0  0
   28.9470   14.9610   16.8600 C   0  0  0  0  0  0  0  0  0  0  0  0
   29.0370   13.5870   16.9020 C   0  0  0  0  0  3  0  0  0  0  0  0
   29.4420   15.6760   15.6470 C   0  0  0  0  0  0  0  0  0  0  0  0
   29.0180   16.8890   15.4360 N   0  0  0  0  0  0  0  0  0  0  0  0
   28.4130   17.3180   16.0820 H   0  0  0  0  0  0  0  0  0  0  0  0
   30.2480   15.1300   14.7650 N   0  0  0  0  0  0  0  0  0  0  0  0
   29.8920   14.5050   14.0940 H   0  0  0  0  0  0  0  0  0  0  0  0
   31.2080   15.3470   14.7770 H   0  0  0  0  0  0  0  0  0  0  0  0
   27.3180   10.8860   17.7640 C   0  0  0  0  0  2  0  0  0  0  0  0
   27.2510    9.7350   16.7840 C   0  0  0  0  0  2  0  0  0  0  0  0
   25.8500    9.1670   16.8240 C   0  0  0  0  0  0  0  0  0  0  0  0
   25.1260    9.1030   15.6390 C   0  0  0  0  0  3  0  0  0  0  0  0
   23.8510    8.5310   15.6400 C   0  0  0  0  0  3  0  0  0  0  0  0
   23.2520    8.0740   16.8320 C   0  0  0  0  0  0  0  0  0  0  0  0
   23.9790    8.1720   18.0300 C   0  0  0  0  0  3  0  0  0  0  0  0
   25.2770    8.6930   18.0170 C   0  0  0  0  0  3  0  0  0  0  0  0
   21.8300    7.5250   16.7930 C   0  0  0  0  0  0  0  0  0  0  0  0
   21.0480    7.7840   15.7620 N   0  0  0  0  0  0  0  0  0  0  0  0
   21.3790    8.3420   15.0220 H   0  0  0  0  0  0  0  0  0  0  0  0
   21.3350    6.7640   17.7720 N   0  0  0  0  0  0  0  0  0  0  0  0
   20.7890    5.9740   17.5530 H   0  0  0  0  0  0  0  0  0  0  0  0
   21.5150    6.9920   18.7120 H   0  0  0  0  0  0  0  0  0  0  0  0
   29.7360   10.9450   16.9110 C   0  0  0  0  0  2  0  0  0  0  0  0
   31.0570   10.3780   17.4630 C   0  0  0  0  0  0  0  0  0  0  0  0
   31.2460   10.3100   18.6780 O   0  0  0  0  0  0  0  0  0  0  0  0
   31.9850    9.9070   16.5580 O   0  0  0  0  0  0  0  0  0  0  0  0
   33.3980    9.9500   16.7250 C   0  0  0  0  0  1  0  0  0  0  0  0
  1 28  1  6  0  0  0
  1  2  1  0  0  0  0
  2  3  1  0  0  0  0
  4  3  2  0  0  0  0
  5  4  1  0  0  0  0
  6  7  1  0  0  0  0
  6  5  2  0  0  0  0
  7  2  2  0  0  0  0
  8  6  1  0  0  0  0
  9  8  2  0  0  0  0
  9 10  1  0  0  0  0
 11 13  1  0  0  0  0
 11  8  1  0  0  0  0
 12 11  1  0  0  0  0
 14  1  1  0  0  0  0
 15 16  1  0  0  0  0
 15 14  1  0  0  0  0
 16 21  1  0  0  0  0
 17 18  1  0  0  0  0
 17 16  2  0  0  0  0
 18 19  2  0  0  0  0
 19 20  1  0  0  0  0
 21 20  2  0  0  0  0
 22 19  1  0  0  0  0
 22 25  1  0  0  0  0
 23 22  2  0  0  0  0
 24 23  1  0  0  0  0
 25 27  1  0  0  0  0
 26 25  1  0  0  0  0
 28 29  1  0  0  0  0
 29 30  2  0  0  0  0
 31 32  1  0  0  0  0
 31 29  1  0  0  0  0
M  END
>  <Pose>
3

>  <Score>
-7.396

$$$$
1AZ8_lig_vina_out.pdbqt
 OpenBabel10152116403D

 32 33  0  0  1  0  0  0  0  0999 V2000
   29.4110   11.5920   18.0600 C   0  0  1  0  0  3  0  0  0  0  0  0
   29.1090   13.0190   18.1080 C   0  0  0  0  0  0  0  0  0  0  0  0
   28.6110   13.6870   19.2430 C   0  0  0  0  0  3  0  0  0  0  0  0
   28.3520   15.0570   19.1880 C   0  0  0  0  0  3  0  0  0  0  0  0
   28.5920   15.7390   18.0010 C   0  0  0  0  0  3  0  0  0  0  0  0
   29.1290   15.0710   16.8970 C   0  0  0  0  0  0  0  0  0  0  0  0
   29.3790   13.7180   16.9490 C   0  0  0  0  0  3  0  0  0  0  0  0
   29.4090   15.8040   15.6270 C   0  0  0  0  0  0  0  0  0  0  0  0
   30.1700   15.2260   14.7420 N   0  0  0  0  0  0  0  0  0  0  0  0
   30.5190   14.3200   14.9090 H   0  0  0  0  0  0  0  0  0  0  0  0
   28.9600   17.0110   15.3750 N   0  0  0  0  0  0  0  0  0  0  0  0
   28.7850   17.6350   16.1160 H   0  0  0  0  0  0  0  0  0  0  0  0
   28.8000   17.2930   14.4460 H   0  0  0  0  0  0  0  0  0  0  0  0
   28.2290   10.8750   18.6810 C   0  0  0  0  0  2  0  0  0  0  0  0
   27.0070   10.8130   17.7890 C   0  0  0  0  0  2  0  0  0  0  0  0
   25.9460   10.0080   18.5030 C   0  0  0  0  0  0  0  0  0  0  0  0
   25.5680   10.3960   19.7840 C   0  0  0  0  0  3  0  0  0  0  0  0
   24.5500    9.7020   20.4420 C   0  0  0  0  0  3  0  0  0  0  0  0
   23.9370    8.5720   19.8630 C   0  0  0  0  0  0  0  0  0  0  0  0
   24.3470    8.1690   18.5810 C   0  0  0  0  0  3  0  0  0  0  0  0
   25.3260    8.8990   17.9010 C   0  0  0  0  0  3  0  0  0  0  0  0
   22.8820    7.8040   20.6520 C   0  0  0  0  0  0  0  0  0  0  0  0
   22.7010    8.0570   21.9340 N   0  0  0  0  0  0  0  0  0  0  0  0
   23.2550    8.7330   22.3860 H   0  0  0  0  0  0  0  0  0  0  0  0
   22.1040    6.8780   20.0860 N   0  0  0  0  0  0  0  0  0  0  0  0
   22.3490    6.4960   19.2120 H   0  0  0  0  0  0  0  0  0  0  0  0
   21.2860    6.5770   20.5430 H   0  0  0  0  0  0  0  0  0  0  0  0
   29.7950   11.0580   16.6580 C   0  0  0  0  0  2  0  0  0  0  0  0
   30.8110    9.9010   16.6150 C   0  0  0  0  0  0  0  0  0  0  0  0
   32.0190   10.1360   16.5720 O   0  0  0  0  0  0  0  0  0  0  0  0
   30.3250    8.6130   16.6780 O   0  0  0  0  0  0  0  0  0  0  0  0
   29.0860    8.1690   16.1340 C   0  0  0  0  0  1  0  0  0  0  0  0
  1 28  1  6  0  0  0
  1  2  1  0  0  0  0
  1 14  1  0  0  0  0
  2  3  1  0  0  0  0
  4  3  2  0  0  0  0
  5  4  1  0  0  0  0
  6  7  1  0  0  0  0
  6  5  2  0  0  0  0
  7  2  2  0  0  0  0
  8  6  1  0  0  0  0
  9 10  1  0  0  0  0
  9  8  2  0  0  0  0
 11  8  1  0  0  0  0
 11 12  1  0  0  0  0
 13 11  1  0  0  0  0
 15 16  1  0  0  0  0
 15 14  1  0  0  0  0
 16 17  1  0  0  0  0
 17 18  2  0  0  0  0
 19 18  1  0  0  0  0
 19 22  1  0  0  0  0
 20 19  2  0  0  0  0
 21 16  2  0  0  0  0
 21 20  1  0  0  0  0
 22 23  2  0  0  0  0
 23 24  1  0  0  0  0
 25 27  1  0  0  0  0
 25 22  1  0  0  0  0
 26 25  1  0  0  0  0
 29 28  1  0  0  0  0
 29 31  1  0  0  0  0
 30 29  2  0  0  0  0
 32 31  1  0  0  0  0
M  END
>  <Pose>
4

>  <Score>
-7.210

$$$$
1AZ8_lig_vina_out.pdbqt
 OpenBabel10152116403D

 32 33  0  0  1  0  0  0  0  0999 V2000
   25.6650    8.9900   19.0950 C   0  0  1  0  0  3  0  0  0  0  0  0
   25.1050    8.8580   17.7540 C   0  0  0  0  0  0  0  0  0  0  0  0
   25.7670    9.2490   16.5750 C   0  0  0  0  0  3  0  0  0  0  0  0
   25.1450    9.0830   15.3370 C   0  0  0  0  0  3  0  0  0  0  0  0
   23.8700    8.5310   15.2960 C   0  0  0  0  0  3  0  0  0  0  0  0
   23.2430    8.1050   16.4710 C   0  0  0  0  0  0  0  0  0  0  0  0
   23.8550    8.2750   17.6930 C   0  0  0  0  0  3  0  0  0  0  0  0
   21.8840    7.4910   16.4290 C   0  0  0  0  0  0  0  0  0  0  0  0
   21.6720    6.4240   17.1450 N   0  0  0  0  0  0  0  0  0  0  0  0
   22.3890    6.0630   17.7150 H   0  0  0  0  0  0  0  0  0  0  0  0
   20.9080    7.9480   15.6800 N   0  0  0  0  0  0  0  0  0  0  0  0
   20.3750    8.7180   15.9820 H   0  0  0  0  0  0  0  0  0  0  0  0
   20.7090    7.5190   14.8160 H   0  0  0  0  0  0  0  0  0  0  0  0
   27.0440    9.6000   18.9340 C   0  0  0  0  0  2  0  0  0  0  0  0
   27.2870   10.8150   19.8040 C   0  0  0  0  0  2  0  0  0  0  0  0
   27.8340   11.9170   18.9280 C   0  0  0  0  0  0  0  0  0  0  0  0
   27.7430   13.2300   19.3770 C   0  0  0  0  0  3  0  0  0  0  0  0
   28.2920   14.2610   18.6110 C   0  0  0  0  0  3  0  0  0  0  0  0
   28.8830   14.0090   17.3560 C   0  0  0  0  0  0  0  0  0  0  0  0
   28.9430   12.6830   16.8950 C   0  0  0  0  0  3  0  0  0  0  0  0
   28.4430   11.6470   17.6900 C   0  0  0  0  0  3  0  0  0  0  0  0
   29.4020   15.1760   16.5240 C   0  0  0  0  0  0  0  0  0  0  0  0
   29.2390   16.4150   16.9470 N   0  0  0  0  0  0  0  0  0  0  0  0
   28.7700   16.5880   17.7950 H   0  0  0  0  0  0  0  0  0  0  0  0
   30.0450   14.9960   15.3680 N   0  0  0  0  0  0  0  0  0  0  0  0
   29.6890   15.3930   14.5390 H   0  0  0  0  0  0  0  0  0  0  0  0
   30.8740   14.4660   15.3430 H   0  0  0  0  0  0  0  0  0  0  0  0
   24.7660    9.7470   20.1020 C   0  0  0  0  0  2  0  0  0  0  0  0
   24.4240    9.0120   21.4110 C   0  0  0  0  0  0  0  0  0  0  0  0
   25.2840    8.8510   22.2780 O   0  0  0  0  0  0  0  0  0  0  0  0
   23.1230    8.5940   21.5950 O   0  0  0  0  0  0  0  0  0  0  0  0
   22.5460    7.4180   21.0370 C   0  0  0  0  0  1  0  0  0  0  0  0
  1 14  1  6  0  0  0
  1 28  1  0  0  0  0
  2  1  1  0  0  0  0
  3  2  2  0  0  0  0
  4  3  1  0  0  0  0
  5  4  2  0  0  0  0
  5  6  1  0  0  0  0
  6  7  2  0  0  0  0
  7  2  1  0  0  0  0
  8  6  1  0  0  0  0
  8  9  2  0  0  0  0
  9 10  1  0  0  0  0
 11 12  1  0  0  0  0
 11  8  1  0  0  0  0
 13 11  1  0  0  0  0
 14 15  1  0  0  0  0
 16 17  1  0  0  0  0
 16 15  1  0  0  0  0
 18 17  2  0  0  0  0
 19 18  1  0  0  0  0
 20 19  2  0  0  0  0
 20 21  1  0  0  0  0
 21 16  2  0  0  0  0
 22 23  2  0  0  0  0
 22 19  1  0  0  0  0
 23 24  1  0  0  0  0
 25 22  1  0  0  0  0
 26 25  1  0  0  0  0
 27 25  1  0  0  0  0
 28 29  1  0  0  0  0
 29 31  1  0  0  0  0
 29 30  2  0  0  0  0
 32 31  1  0  0  0  0
M  END
>  <Pose>
5

>  <Score>
-6.950

$$$$
1AZ8_lig_vina_out.pdbqt
 OpenBabel10152116403D

 32 33  0  0  1  0  0  0  0  0999 V2000
   29.3290   11.4350   17.7270 C   0  0  1  0  0  3  0  0  0  0  0  0
   29.0050   12.8530   17.8440 C   0  0  0  0  0  0  0  0  0  0  0  0
   28.4430   13.4480   18.9890 C   0  0  0  0  0  3  0  0  0  0  0  0
   28.1690   14.8160   19.0020 C   0  0  0  0  0  3  0  0  0  0  0  0
   28.4580   15.5690   17.8700 C   0  0  0  0  0  3  0  0  0  0  0  0
   29.0580   14.9730   16.7570 C   0  0  0  0  0  0  0  0  0  0  0  0
   29.3240   13.6220   16.7420 C   0  0  0  0  0  3  0  0  0  0  0  0
   29.3910   15.7820   15.5480 C   0  0  0  0  0  0  0  0  0  0  0  0
   30.1600   15.2450   14.6450 N   0  0  0  0  0  0  0  0  0  0  0  0
   30.4800   14.3210   14.7570 H   0  0  0  0  0  0  0  0  0  0  0  0
   28.9810   17.0170   15.3690 N   0  0  0  0  0  0  0  0  0  0  0  0
   29.2190   17.7130   16.0230 H   0  0  0  0  0  0  0  0  0  0  0  0
   28.4370   17.2450   14.5820 H   0  0  0  0  0  0  0  0  0  0  0  0
   28.0530   10.7300   17.3100 C   0  0  0  0  0  2  0  0  0  0  0  0
   27.8200    9.4100   18.0150 C   0  0  0  0  0  2  0  0  0  0  0  0
   27.8250    9.6670   19.5050 C   0  0  0  0  0  0  0  0  0  0  0  0
   26.8280   10.4750   20.0420 C   0  0  0  0  0  3  0  0  0  0  0  0
   26.7790   10.6820   21.4230 C   0  0  0  0  0  3  0  0  0  0  0  0
   27.7570   10.1420   22.2820 C   0  0  0  0  0  0  0  0  0  0  0  0
   28.7780    9.3520   21.7270 C   0  0  0  0  0  3  0  0  0  0  0  0
   28.7930    9.1010   20.3510 C   0  0  0  0  0  3  0  0  0  0  0  0
   27.7010   10.4560   23.7730 C   0  0  0  0  0  0  0  0  0  0  0  0
   27.6770   11.7100   24.1840 N   0  0  0  0  0  0  0  0  0  0  0  0
   27.7070   12.4430   23.5290 H   0  0  0  0  0  0  0  0  0  0  0  0
   27.6580    9.4980   24.7020 N   0  0  0  0  0  0  0  0  0  0  0  0
   27.9360    9.6940   25.6260 H   0  0  0  0  0  0  0  0  0  0  0  0
   27.3480    8.5940   24.4620 H   0  0  0  0  0  0  0  0  0  0  0  0
   30.5390   11.1180   16.8140 C   0  0  0  0  0  2  0  0  0  0  0  0
   31.6150   10.1830   17.3950 C   0  0  0  0  0  0  0  0  0  0  0  0
   32.4650   10.6190   18.1730 O   0  0  0  0  0  0  0  0  0  0  0  0
   31.5600    8.8470   17.0560 O   0  0  0  0  0  0  0  0  0  0  0  0
   30.8440    8.3030   15.9530 C   0  0  0  0  0  1  0  0  0  0  0  0
  1 28  1  6  0  0  0
  1  2  1  0  0  0  0
  2  3  1  0  0  0  0
  3  4  2  0  0  0  0
  5  4  1  0  0  0  0
  6  5  2  0  0  0  0
  7  6  1  0  0  0  0
  7  2  2  0  0  0  0
  8  6  1  0  0  0  0
  9 10  1  0  0  0  0
  9  8  2  0  0  0  0
 11  8  1  0  0  0  0
 11 12  1  0  0  0  0
 13 11  1  0  0  0  0
 14  1  1  0  0  0  0
 14 15  1  0  0  0  0
 15 16  1  0  0  0  0
 16 17  2  0  0  0  0
 16 21  1  0  0  0  0
 17 18  1  0  0  0  0
 18 19  2  0  0  0  0
 19 22  1  0  0  0  0
 20 19  1  0  0  0  0
 21 20  2  0  0  0  0
 22 23  2  0  0  0  0
 22 25  1  0  0  0  0
 24 23  1  0  0  0  0
 25 26  1  0  0  0  0
 27 25  1  0  0  0  0
 28 29  1  0  0  0  0
 29 30  2  0  0  0  0
 31 29  1  0  0  0  0
 32 31  1  0  0  0  0
M  END
>  <Pose>
6

>  <Score>
-6.933

$$$$
1AZ8_lig_vina_out.pdbqt
 OpenBabel10152116403D

 32 33  0  0  1  0  0  0  0  0999 V2000
   27.1130   10.3750   19.2850 C   0  0  1  0  0  3  0  0  0  0  0  0
   25.8620    9.6970   19.6100 C   0  0  0  0  0  0  0  0  0  0  0  0
   25.1920    9.8140   20.8430 C   0  0  0  0  0  3  0  0  0  0  0  0
   24.0000    9.1230   21.0580 C   0  0  0  0  0  3  0  0  0  0  0  0
   23.4940    8.3240   20.0400 C   0  0  0  0  0  3  0  0  0  0  0  0
   24.1460    8.2530   18.8040 C   0  0  0  0  0  0  0  0  0  0  0  0
   25.3270    8.9310   18.5950 C   0  0  0  0  0  3  0  0  0  0  0  0
   23.5950    7.4130   17.7000 C   0  0  0  0  0  0  0  0  0  0  0  0
   22.3100    7.2080   17.6710 N   0  0  0  0  0  0  0  0  0  0  0  0
   21.7290    7.6260   18.3470 H   0  0  0  0  0  0  0  0  0  0  0  0
   24.3430    6.8410   16.7860 N   0  0  0  0  0  0  0  0  0  0  0  0
   24.4200    5.8610   16.7550 H   0  0  0  0  0  0  0  0  0  0  0  0
   24.8270    7.3940   16.1300 H   0  0  0  0  0  0  0  0  0  0  0  0
   27.1940   11.5950   20.1810 C   0  0  0  0  0  2  0  0  0  0  0  0
   28.5780   12.2000   20.2750 C   0  0  0  0  0  2  0  0  0  0  0  0
   28.7630   13.1310   19.0980 C   0  0  0  0  0  0  0  0  0  0  0  0
   29.5810   12.7210   18.0500 C   0  0  0  0  0  3  0  0  0  0  0  0
   29.7230   13.5390   16.9270 C   0  0  0  0  0  3  0  0  0  0  0  0
   29.1050   14.8040   16.8560 C   0  0  0  0  0  0  0  0  0  0  0  0
   28.3050   15.2230   17.9330 C   0  0  0  0  0  3  0  0  0  0  0  0
   28.1200   14.3790   19.0320 C   0  0  0  0  0  3  0  0  0  0  0  0
   29.3500   15.6910   15.6400 C   0  0  0  0  0  0  0  0  0  0  0  0
   30.2210   15.3260   14.7190 N   0  0  0  0  0  0  0  0  0  0  0  0
   30.7230   14.4860   14.8220 H   0  0  0  0  0  0  0  0  0  0  0  0
   28.6940   16.8390   15.4530 N   0  0  0  0  0  0  0  0  0  0  0  0
   27.8420   17.0010   15.9190 H   0  0  0  0  0  0  0  0  0  0  0  0
   29.0630   17.5240   14.8490 H   0  0  0  0  0  0  0  0  0  0  0  0
   28.3720    9.4760   19.3450 C   0  0  0  0  0  2  0  0  0  0  0  0
   29.0850    9.1970   18.0090 C   0  0  0  0  0  0  0  0  0  0  0  0
   28.5150    9.4200   16.9400 O   0  0  0  0  0  0  0  0  0  0  0  0
   30.3870    8.7450   18.0540 O   0  0  0  0  0  0  0  0  0  0  0  0
   31.5250    9.5330   18.3860 C   0  0  0  0  0  1  0  0  0  0  0  0
  1 28  1  1  0  0  0
  1  2  1  0  0  0  0
  1 14  1  0  0  0  0
  2  3  1  0  0  0  0
  3  4  2  0  0  0  0
  5  4  1  0  0  0  0
  6  5  2  0  0  0  0
  7  6  1  0  0  0  0
  7  2  2  0  0  0  0
  8  6  1  0  0  0  0
  9  8  2  0  0  0  0
  9 10  1  0  0  0  0
 11  8  1  0  0  0  0
 12 11  1  0  0  0  0
 13 11  1  0  0  0  0
 14 15  1  0  0  0  0
 16 15  1  0  0  0  0
 17 16  2  0  0  0  0
 18 17  1  0  0  0  0
 19 18  2  0  0  0  0
 19 20  1  0  0  0  0
 20 21  2  0  0  0  0
 21 16  1  0  0  0  0
 22 19  1  0  0  0  0
 23 24  1  0  0  0  0
 23 22  2  0  0  0  0
 25 22  1  0  0  0  0
 25 26  1  0  0  0  0
 27 25  1  0  0  0  0
 29 31  1  0  0  0  0
 29 28  1  0  0  0  0
 30 29  2  0  0  0  0
 31 32  1  0  0  0  0
M  END
>  <Pose>
7

>  <Score>
-6.859

$$$$
1AZ8_lig_vina_out.pdbqt
 OpenBabel10152116403D

 32 33  0  0  1  0  0  0  0  0999 V2000
   27.1330   10.3990   21.2850 C   0  0  1  0  0  3  0  0  0  0  0  0
   27.9390   10.0650   22.4530 C   0  0  0  0  0  0  0  0  0  0  0  0
   28.3080    8.7560   22.8170 C   0  0  0  0  0  3  0  0  0  0  0  0
   29.0830    8.5400   23.9570 C   0  0  0  0  0  3  0  0  0  0  0  0
   29.4760    9.6330   24.7190 C   0  0  0  0  0  3  0  0  0  0  0  0
   29.1400   10.9310   24.3210 C   0  0  0  0  0  0  0  0  0  0  0  0
   28.3710   11.1440   23.1990 C   0  0  0  0  0  3  0  0  0  0  0  0
   29.5790   12.1100   25.1240 C   0  0  0  0  0  0  0  0  0  0  0  0
   30.6590   11.9940   25.8420 N   0  0  0  0  0  0  0  0  0  0  0  0
   31.1760   11.1560   25.8220 H   0  0  0  0  0  0  0  0  0  0  0  0
   28.9110   13.2400   25.1730 N   0  0  0  0  0  0  0  0  0  0  0  0
   28.0560   13.2850   25.6580 H   0  0  0  0  0  0  0  0  0  0  0  0
   29.2670   14.0410   24.7250 H   0  0  0  0  0  0  0  0  0  0  0  0
   27.6090   11.7540   20.7990 C   0  0  0  0  0  2  0  0  0  0  0  0
   28.9310   11.7160   20.0620 C   0  0  0  0  0  2  0  0  0  0  0  0
   28.9100   12.7960   19.0060 C   0  0  0  0  0  0  0  0  0  0  0  0
   28.2030   13.9650   19.2660 C   0  0  0  0  0  3  0  0  0  0  0  0
   28.2150   15.0010   18.3290 C   0  0  0  0  0  3  0  0  0  0  0  0
   28.8770   14.8650   17.0920 C   0  0  0  0  0  0  0  0  0  0  0  0
   29.5630   13.6680   16.8240 C   0  0  0  0  0  3  0  0  0  0  0  0
   29.5960   12.6550   17.7870 C   0  0  0  0  0  3  0  0  0  0  0  0
   28.8000   15.9960   16.0720 C   0  0  0  0  0  0  0  0  0  0  0  0
   29.6160   16.0100   15.0360 N   0  0  0  0  0  0  0  0  0  0  0  0
   30.2850   15.2960   14.9270 H   0  0  0  0  0  0  0  0  0  0  0  0
   27.9110   16.9870   16.1740 N   0  0  0  0  0  0  0  0  0  0  0  0
   28.1530   17.8980   15.8860 H   0  0  0  0  0  0  0  0  0  0  0  0
   27.0130   16.8070   16.5360 H   0  0  0  0  0  0  0  0  0  0  0  0
   27.1130    9.3160   20.1790 C   0  0  0  0  0  2  0  0  0  0  0  0
   26.0080    9.4370   19.1130 C   0  0  0  0  0  0  0  0  0  0  0  0
   26.2230   10.0340   18.0580 O   0  0  0  0  0  0  0  0  0  0  0  0
   24.8020    8.8150   19.3610 O   0  0  0  0  0  0  0  0  0  0  0  0
   24.0770    8.0180   18.4310 C   0  0  0  0  0  1  0  0  0  0  0  0
  1 28  1  6  0  0  0
  1  2  1  0  0  0  0
  2  3  2  0  0  0  0
  2  7  1  0  0  0  0
  3  4  1  0  0  0  0
  4  5  2  0  0  0  0
  6  5  1  0  0  0  0
  6  8  1  0  0  0  0
  7  6  2  0  0  0  0
  8 11  1  0  0  0  0
  8  9  2  0  0  0  0
 10  9  1  0  0  0  0
 11 12  1  0  0  0  0
 13 11  1  0  0  0  0
 14  1  1  0  0  0  0
 15 14  1  0  0  0  0
 16 17  1  0  0  0  0
 16 15  1  0  0  0  0
 18 17  2  0  0  0  0
 19 18  1  0  0  0  0
 20 19  2  0  0  0  0
 20 21  1  0  0  0  0
 21 16  2  0  0  0  0
 22 25  1  0  0  0  0
 22 19  1  0  0  0  0
 23 22  2  0  0  0  0
 24 23  1  0  0  0  0
 25 27  1  0  0  0  0
 26 25  1  0  0  0  0
 29 31  1  0  0  0  0
 29 28  1  0  0  0  0
 30 29  2  0  0  0  0
 32 31  1  0  0  0  0
M  END
>  <Pose>
8

>  <Score>
-6.774

$$$$
1AZ8_lig_vina_out.pdbqt
 OpenBabel10152116403D

 32 33  0  0  1  0  0  0  0  0999 V2000
   25.6560    9.9240   18.7130 C   0  0  1  0  0  3  0  0  0  0  0  0
   24.6970    9.2010   19.5410 C   0  0  0  0  0  0  0  0  0  0  0  0
   24.4860    9.4460   20.9110 C   0  0  0  0  0  3  0  0  0  0  0  0
   23.5440    8.6980   21.6170 C   0  0  0  0  0  3  0  0  0  0  0  0
   22.8270    7.7150   20.9450 C   0  0  0  0  0  3  0  0  0  0  0  0
   23.0140    7.5140   19.5740 C   0  0  0  0  0  0  0  0  0  0  0  0
   23.9480    8.2490   18.8780 C   0  0  0  0  0  3  0  0  0  0  0  0
   22.2300    6.4750   18.8430 C   0  0  0  0  0  0  0  0  0  0  0  0
   22.5350    5.2250   19.0440 N   0  0  0  0  0  0  0  0  0  0  0  0
   23.2440    4.9880   19.6850 H   0  0  0  0  0  0  0  0  0  0  0  0
   21.2800    6.7580   17.9830 N   0  0  0  0  0  0  0  0  0  0  0  0
   21.1220    6.1660   17.2120 H   0  0  0  0  0  0  0  0  0  0  0  0
   20.7270    7.5620   18.1090 H   0  0  0  0  0  0  0  0  0  0  0  0
   26.2050   11.0510   19.5650 C   0  0  0  0  0  2  0  0  0  0  0  0
   27.7180   11.1160   19.6020 C   0  0  0  0  0  2  0  0  0  0  0  0
   28.1640   12.1960   18.6450 C   0  0  0  0  0  0  0  0  0  0  0  0
   27.9030   13.5220   18.9710 C   0  0  0  0  0  3  0  0  0  0  0  0
   28.3550   14.5420   18.1300 C   0  0  0  0  0  3  0  0  0  0  0  0
   29.0170   14.2550   16.9190 C   0  0  0  0  0  0  0  0  0  0  0  0
   29.2500   12.9110   16.5820 C   0  0  0  0  0  3  0  0  0  0  0  0
   28.8460   11.8950   17.4530 C   0  0  0  0  0  3  0  0  0  0  0  0
   29.4260   15.4000   15.9990 C   0  0  0  0  0  0  0  0  0  0  0  0
   28.8750   16.5910   16.1390 N   0  0  0  0  0  0  0  0  0  0  0  0
   28.1900   16.7380   16.8300 H   0  0  0  0  0  0  0  0  0  0  0  0
   30.3500   15.2530   15.0470 N   0  0  0  0  0  0  0  0  0  0  0  0
   30.4900   15.9650   14.3810 H   0  0  0  0  0  0  0  0  0  0  0  0
   30.8930   14.4320   15.0110 H   0  0  0  0  0  0  0  0  0  0  0  0
   26.7530    9.0410   18.0700 C   0  0  0  0  0  2  0  0  0  0  0  0
   26.7090    8.8910   16.5380 C   0  0  0  0  0  0  0  0  0  0  0  0
   25.7560    9.3330   15.8960 O   0  0  0  0  0  0  0  0  0  0  0  0
   27.7880    8.2980   15.9160 O   0  0  0  0  0  0  0  0  0  0  0  0
   28.3970    7.0720   16.3090 C   0  0  0  0  0  1  0  0  0  0  0  0
  1 28  1  1  0  0  0
  1  2  1  0  0  0  0
  1 14  1  0  0  0  0
  2  3  1  0  0  0  0
  3  4  2  0  0  0  0
  5  4  1  0  0  0  0
  6  5  2  0  0  0  0
  7  2  2  0  0  0  0
  7  6  1  0  0  0  0
  8  9  2  0  0  0  0
  8  6  1  0  0  0  0
  9 10  1  0  0  0  0
 11 13  1  0  0  0  0
 11  8  1  0  0  0  0
 12 11  1  0  0  0  0
 14 15  1  0  0  0  0
 16 17  1  0  0  0  0
 16 15  1  0  0  0  0
 18 17  2  0  0  0  0
 19 18  1  0  0  0  0
 20 19  2  0  0  0  0
 20 21  1  0  0  0  0
 21 16  2  0  0  0  0
 22 23  2  0  0  0  0
 22 19  1  0  0  0  0
 23 24  1  0  0  0  0
 25 22  1  0  0  0  0
 26 25  1  0  0  0  0
 27 25  1  0  0  0  0
 29 28  1  0  0  0  0
 30 29  2  0  0  0  0
 31 32  1  0  0  0  0
 31 29  1  0  0  0  0
M  END
>  <Pose>
9

>  <Score>
-6.748

$$$$
1AZ8_lig_vina_out.pdbqt
 OpenBabel10152116403D

 32 33  0  0  1  0  0  0  0  0999 V2000
   26.8600   10.4990   19.6590 C   0  0  1  0  0  3  0  0  0  0  0  0
   25.8270    9.8220   20.4360 C   0  0  0  0  0  0  0  0  0  0  0  0
   24.5560    9.4760   19.9380 C   0  0  0  0  0  3  0  0  0  0  0  0
   23.6350    8.8300   20.7630 C   0  0  0  0  0  3  0  0  0  0  0  0
   23.9950    8.5400   22.0730 C   0  0  0  0  0  3  0  0  0  0  0  0
   25.2760    8.8480   22.5410 C   0  0  0  0  0  0  0  0  0  0  0  0
   26.1840    9.4920   21.7280 C   0  0  0  0  0  3  0  0  0  0  0  0
   25.6750    8.5190   23.9410 C   0  0  0  0  0  0  0  0  0  0  0  0
   24.7450    8.4900   24.8510 N   0  0  0  0  0  0  0  0  0  0  0  0
   23.8070    8.6540   24.6010 H   0  0  0  0  0  0  0  0  0  0  0  0
   26.9170    8.2980   24.3050 N   0  0  0  0  0  0  0  0  0  0  0  0
   27.5530    7.9020   23.6680 H   0  0  0  0  0  0  0  0  0  0  0  0
   27.2100    8.5280   25.2170 H   0  0  0  0  0  0  0  0  0  0  0  0
   27.3050   11.6970   20.4760 C   0  0  0  0  0  2  0  0  0  0  0  0
   28.7630   12.0610   20.2920 C   0  0  0  0  0  2  0  0  0  0  0  0
   28.8600   13.0310   19.1360 C   0  0  0  0  0  0  0  0  0  0  0  0
   29.7000   12.7150   18.0740 C   0  0  0  0  0  3  0  0  0  0  0  0
   29.7640   13.5670   16.9690 C   0  0  0  0  0  3  0  0  0  0  0  0
   29.0440   14.7780   16.9320 C   0  0  0  0  0  0  0  0  0  0  0  0
   28.2210   15.1040   18.0230 C   0  0  0  0  0  3  0  0  0  0  0  0
   28.1150   14.2220   19.1030 C   0  0  0  0  0  3  0  0  0  0  0  0
   29.2040   15.7100   15.7360 C   0  0  0  0  0  0  0  0  0  0  0  0
   30.0430   15.4020   14.7650 N   0  0  0  0  0  0  0  0  0  0  0  0
   30.5760   14.5760   14.8180 H   0  0  0  0  0  0  0  0  0  0  0  0
   28.5050   16.8410   15.6160 N   0  0  0  0  0  0  0  0  0  0  0  0
   28.9670   17.6870   15.4150 H   0  0  0  0  0  0  0  0  0  0  0  0
   27.5270   16.8290   15.7280 H   0  0  0  0  0  0  0  0  0  0  0  0
   28.0270    9.5920   19.2020 C   0  0  0  0  0  2  0  0  0  0  0  0
   28.1390    9.3190   17.6900 C   0  0  0  0  0  0  0  0  0  0  0  0
   27.1880    9.5530   16.9440 O   0  0  0  0  0  0  0  0  0  0  0  0
   29.3450    8.8600   17.2050 O   0  0  0  0  0  0  0  0  0  0  0  0
   30.1750    9.5440   16.2720 C   0  0  0  0  0  1  0  0  0  0  0  0
  1 28  1  1  0  0  0
  1  2  1  0  0  0  0
  1 14  1  0  0  0  0
  2  7  1  0  0  0  0
  3  2  2  0  0  0  0
  3  4  1  0  0  0  0
  4  5  2  0  0  0  0
  5  6  1  0  0  0  0
  6  8  1  0  0  0  0
  7  6  2  0  0  0  0
  8 11  1  0  0  0  0
  8  9  2  0  0  0  0
 10  9  1  0  0  0  0
 11 13  1  0  0  0  0
 12 11  1  0  0  0  0
 15 14  1  0  0  0  0
 16 15  1  0  0  0  0
 17 16  2  0  0  0  0
 18 17  1  0  0  0  0
 19 18  2  0  0  0  0
 19 20  1  0  0  0  0
 20 21  2  0  0  0  0
 21 16  1  0  0  0  0
 22 19  1  0  0  0  0
 23 24  1  0  0  0  0
 23 22  2  0  0  0  0
 25 27  1  0  0  0  0
 25 22  1  0  0  0  0
 26 25  1  0  0  0  0
 29 28  1  0  0  0  0
 30 29  2  0  0  0  0
 31 29  1  0  0  0  0
 32 31  1  0  0  0  0
M  END
>  <Pose>
10

>  <Score>
-6.743

$$$$
