1AZ8


 32 33  0  0  0  0  0  0  0  0999 V2000
   29.5634   11.4151   17.8201 C   0  0  0  0  0  0  0  0  0  0  0  0
   28.7287   15.5565   17.9691 C   0  0  0  0  0  0  0  0  0  0  0  0
   28.5474   14.8259   19.1372 C   0  0  0  0  0  0  0  0  0  0  0  0
   28.8131   13.4566   19.1239 C   0  0  0  0  0  0  0  0  0  0  0  0
   29.2592   12.8369   17.9410 C   0  0  0  0  0  0  0  0  0  0  0  0
   29.4724   13.5835   16.7994 C   0  0  0  0  0  0  0  0  0  0  0  0
   29.2157   14.9367   16.8140 C   0  0  0  0  0  0  0  0  0  0  0  0
   28.9686   16.9356   15.3822 N   0  0  0  0  0  0  0  0  0  0  0  0
   30.1543   15.1839   14.6218 N   0  0  0  0  0  0  0  0  0  0  0  0
   29.4330   15.7213   15.5632 C   0  0  0  0  0  0  0  0  0  0  0  0
   28.4209   17.3623   16.0802 H   0  0  0  0  0  0  0  0  0  0  0  0
   29.1680   17.4197   14.5484 H   0  0  0  0  0  0  0  0  0  0  0  0
   30.5134   14.2743   14.7353 H   0  0  0  0  0  0  0  0  0  0  0  0
   30.9717   11.2241   18.3487 C   0  0  0  0  0  0  0  0  0  0  0  0
   31.4516    9.7884   18.3195 C   0  0  0  0  0  0  0  0  0  0  0  0
   33.7182    9.4586   19.3088 C   0  0  0  0  0  0  0  0  0  0  0  0
   32.9581    9.8007   18.1957 C   0  0  0  0  0  0  0  0  0  0  0  0
   35.1104    9.4080   19.2036 C   0  0  0  0  0  0  0  0  0  0  0  0
   35.7702    9.7596   18.0087 C   0  0  0  0  0  0  0  0  0  0  0  0
   34.9951   10.1341   16.8980 C   0  0  0  0  0  0  0  0  0  0  0  0
   33.6000   10.1295   16.9893 C   0  0  0  0  0  0  0  0  0  0  0  0
   38.0274    8.9335   18.7163 N   0  0  0  0  0  0  0  0  0  0  0  0
   37.9343   10.6050   17.1809 N   0  0  0  0  0  0  0  0  0  0  0  0
   37.2943    9.7593   17.9657 C   0  0  0  0  0  0  0  0  0  0  0  0
   37.5850    8.2885   19.3144 H   0  0  0  0  0  0  0  0  0  0  0  0
   39.0102    8.9696   18.6719 H   0  0  0  0  0  0  0  0  0  0  0  0
   37.4276   11.2293   16.6129 H   0  0  0  0  0  0  0  0  0  0  0  0
   28.5232   10.4712   18.4708 C   0  0  0  0  0  0  0  0  0  0  0  0
   26.7804   10.4719   16.8073 O   0  0  0  0  0  0  0  0  0  0  0  0
   27.0655   10.6178   17.9964 C   0  0  0  0  0  0  0  0  0  0  0  0
   26.0987   10.8627   18.9486 O   0  0  0  0  0  0  0  0  0  0  0  0
   26.3095   10.8742   20.3566 C   0  0  0  0  0  0  0  0  0  0  0  0
  2  3  2  0  0  0
  2  7  1  0  0  0
  3  4  1  0  0  0
  4  5  2  0  0  0
  5  6  1  0  0  0
  5  1  1  0  0  0
 31 32  1  0  0  0
  6  7  2  0  0  0
  7 10  1  0  0  0
 16 18  2  0  0  0
 14 15  1  0  0  0
 14  1  1  0  0  0
  1 28  1  0  0  0
 15 17  1  0  0  0
 16 17  1  0  0  0
 17 21  2  0  0  0
 18 19  1  0  0  0
 28 30  1  0  0  0
 19 24  1  0  0  0
 19 20  2  0  0  0
 22 24  1  0  0  0
 23 24  2  0  0  0
 20 21  1  0  0  0
  8 10  1  0  0  0
  9 10  2  0  0  0
 29 30  2  0  0  0
 31 30  1  0  0  0
 22 25  1  0  0  0
 22 26  1  0  0  0
 23 27  1  0  0  0
  8 11  1  0  0  0
  8 12  1  0  0  0
  9 13  1  0  0  0
M  END
> <minimizedAffinity>
-8.10622

$$$$
1AZ8


 32 33  0  0  0  0  0  0  0  0999 V2000
   28.9504   11.5786   18.2961 C   0  0  0  0  0  0  0  0  0  0  0  0
   28.1838   15.7137   17.8678 C   0  0  0  0  0  0  0  0  0  0  0  0
   27.7257   15.0956   19.0251 C   0  0  0  0  0  0  0  0  0  0  0  0
   27.9609   13.7316   19.1992 C   0  0  0  0  0  0  0  0  0  0  0  0
   28.6541   13.0047   18.2126 C   0  0  0  0  0  0  0  0  0  0  0  0
   29.1375   13.6413   17.0869 C   0  0  0  0  0  0  0  0  0  0  0  0
   28.9104   14.9893   16.9176 C   0  0  0  0  0  0  0  0  0  0  0  0
   30.2019   15.0559   14.8119 N   0  0  0  0  0  0  0  0  0  0  0  0
   29.0446   16.8761   15.4445 N   0  0  0  0  0  0  0  0  0  0  0  0
   29.4235   15.6535   15.6836 C   0  0  0  0  0  0  0  0  0  0  0  0
   30.5011   14.1317   14.9714 H   0  0  0  0  0  0  0  0  0  0  0  0
   30.4865   15.5320   13.9984 H   0  0  0  0  0  0  0  0  0  0  0  0
   28.4607   17.3445   16.0840 H   0  0  0  0  0  0  0  0  0  0  0  0
   27.6303   10.8723   18.5364 C   0  0  0  0  0  0  0  0  0  0  0  0
   26.9478   10.3944   17.2722 C   0  0  0  0  0  0  0  0  0  0  0  0
   25.0041    8.9505   16.6703 C   0  0  0  0  0  0  0  0  0  0  0  0
   25.7592    9.5505   17.6721 C   0  0  0  0  0  0  0  0  0  0  0  0
   23.9350    8.1206   17.0166 C   0  0  0  0  0  0  0  0  0  0  0  0
   23.5609    7.9268   18.3616 C   0  0  0  0  0  0  0  0  0  0  0  0
   24.3107    8.5620   19.3661 C   0  0  0  0  0  0  0  0  0  0  0  0
   25.4146    9.3469   19.0195 C   0  0  0  0  0  0  0  0  0  0  0  0
   21.3917    6.8146   17.7819 N   0  0  0  0  0  0  0  0  0  0  0  0
   22.1880    6.5674   19.8949 N   0  0  0  0  0  0  0  0  0  0  0  0
   22.3414    7.0704   18.6849 C   0  0  0  0  0  0  0  0  0  0  0  0
   21.4716    7.1731   16.8685 H   0  0  0  0  0  0  0  0  0  0  0  0
   20.6116    6.2676   18.0295 H   0  0  0  0  0  0  0  0  0  0  0  0
   22.8677    6.7347   20.5873 H   0  0  0  0  0  0  0  0  0  0  0  0
   29.7488   11.0104   17.0978 C   0  0  0  0  0  0  0  0  0  0  0  0
   31.2913    9.8982   18.5771 O   0  0  0  0  0  0  0  0  0  0  0  0
   31.0624   10.2776   17.4281 C   0  0  0  0  0  0  0  0  0  0  0  0
   31.9354   10.0198   16.3924 O   0  0  0  0  0  0  0  0  0  0  0  0
   33.3349    9.7954   16.5274 C   0  0  0  0  0  0  0  0  0  0  0  0
  2  3  2  0  0  0
  2  7  1  0  0  0
  3  4  1  0  0  0
  4  5  2  0  0  0
  5  6  1  0  0  0
  5  1  1  0  0  0
 31 32  1  0  0  0
  6  7  2  0  0  0
  7 10  1  0  0  0
 16 18  2  0  0  0
 14 15  1  0  0  0
 14  1  1  0  0  0
  1 28  1  0  0  0
 15 17  1  0  0  0
 16 17  1  0  0  0
 17 21  2  0  0  0
 18 19  1  0  0  0
 28 30  1  0  0  0
 19 24  1  0  0  0
 19 20  2  0  0  0
 22 24  1  0  0  0
 23 24  2  0  0  0
 20 21  1  0  0  0
  8 10  1  0  0  0
  9 10  2  0  0  0
 29 30  2  0  0  0
 31 30  1  0  0  0
 22 25  1  0  0  0
 22 26  1  0  0  0
 23 27  1  0  0  0
  8 11  1  0  0  0
  8 12  1  0  0  0
  9 13  1  0  0  0
M  END
> <minimizedAffinity>
-7.70462

$$$$
1AZ8


 32 33  0  0  0  0  0  0  0  0999 V2000
   30.2837   11.1416   17.5092 C   0  0  0  0  0  0  0  0  0  0  0  0
   28.5889   14.9688   18.1010 C   0  0  0  0  0  0  0  0  0  0  0  0
   28.5826   14.0935   19.1804 C   0  0  0  0  0  0  0  0  0  0  0  0
   29.1335   12.8220   19.0203 C   0  0  0  0  0  0  0  0  0  0  0  0
   29.6856   12.4441   17.7815 C   0  0  0  0  0  0  0  0  0  0  0  0
   29.7199   13.3389   16.7306 C   0  0  0  0  0  0  0  0  0  0  0  0
   29.1813   14.5966   16.8902 C   0  0  0  0  0  0  0  0  0  0  0  0
   28.4491   16.6074   15.6544 N   0  0  0  0  0  0  0  0  0  0  0  0
   30.0639   15.3117   14.7789 N   0  0  0  0  0  0  0  0  0  0  0  0
   29.2101   15.5409   15.7350 C   0  0  0  0  0  0  0  0  0  0  0  0
   27.7963   16.8011   16.3654 H   0  0  0  0  0  0  0  0  0  0  0  0
   28.5312   17.2135   14.8829 H   0  0  0  0  0  0  0  0  0  0  0  0
   30.6452   14.5181   14.8178 H   0  0  0  0  0  0  0  0  0  0  0  0
   31.4206   10.9687   18.4975 C   0  0  0  0  0  0  0  0  0  0  0  0
   31.9184    9.5442   18.6214 C   0  0  0  0  0  0  0  0  0  0  0  0
   33.9603   10.2713   17.3856 C   0  0  0  0  0  0  0  0  0  0  0  0
   33.4201    9.5562   18.4489 C   0  0  0  0  0  0  0  0  0  0  0  0
   35.3476   10.3440   17.2380 C   0  0  0  0  0  0  0  0  0  0  0  0
   36.2162    9.6535   18.1071 C   0  0  0  0  0  0  0  0  0  0  0  0
   35.6602    8.9079   19.1605 C   0  0  0  0  0  0  0  0  0  0  0  0
   34.2738    8.8827   19.3396 C   0  0  0  0  0  0  0  0  0  0  0  0
   38.5694    8.8727   18.4688 N   0  0  0  0  0  0  0  0  0  0  0  0
   38.2255   10.6016   17.0361 N   0  0  0  0  0  0  0  0  0  0  0  0
   37.7200    9.7042   17.8607 C   0  0  0  0  0  0  0  0  0  0  0  0
   38.2292    8.1899   19.0911 H   0  0  0  0  0  0  0  0  0  0  0  0
   39.5359    8.9424   18.2950 H   0  0  0  0  0  0  0  0  0  0  0  0
   37.6303   11.2317   16.5694 H   0  0  0  0  0  0  0  0  0  0  0  0
   29.2856    9.9585   17.4986 C   0  0  0  0  0  0  0  0  0  0  0  0
   30.1953    9.1826   15.4070 O   0  0  0  0  0  0  0  0  0  0  0  0
   29.3538    9.0079   16.2889 C   0  0  0  0  0  0  0  0  0  0  0  0
   28.4838    7.9385   16.2588 O   0  0  0  0  0  0  0  0  0  0  0  0
   28.2567    7.0890   15.1391 C   0  0  0  0  0  0  0  0  0  0  0  0
  2  3  2  0  0  0
  2  7  1  0  0  0
  3  4  1  0  0  0
  4  5  2  0  0  0
  5  6  1  0  0  0
  5  1  1  0  0  0
 31 32  1  0  0  0
  6  7  2  0  0  0
  7 10  1  0  0  0
 16 18  2  0  0  0
 14 15  1  0  0  0
 14  1  1  0  0  0
  1 28  1  0  0  0
 15 17  1  0  0  0
 16 17  1  0  0  0
 17 21  2  0  0  0
 18 19  1  0  0  0
 28 30  1  0  0  0
 19 24  1  0  0  0
 19 20  2  0  0  0
 22 24  1  0  0  0
 23 24  2  0  0  0
 20 21  1  0  0  0
  8 10  1  0  0  0
  9 10  2  0  0  0
 29 30  2  0  0  0
 31 30  1  0  0  0
 22 25  1  0  0  0
 22 26  1  0  0  0
 23 27  1  0  0  0
  8 11  1  0  0  0
  8 12  1  0  0  0
  9 13  1  0  0  0
M  END
> <minimizedAffinity>
-7.62326

$$$$
1AZ8


 32 33  0  0  0  0  0  0  0  0999 V2000
   26.7839   10.6563   18.8323 C   0  0  0  0  0  0  0  0  0  0  0  0
   23.9435    8.2870   20.8789 C   0  0  0  0  0  0  0  0  0  0  0  0
   24.8179    9.0440   21.6494 C   0  0  0  0  0  0  0  0  0  0  0  0
   25.7686    9.8373   21.0069 C   0  0  0  0  0  0  0  0  0  0  0  0
   25.8297    9.8639   19.6005 C   0  0  0  0  0  0  0  0  0  0  0  0
   24.9282    9.1371   18.8487 C   0  0  0  0  0  0  0  0  0  0  0  0
   23.9857    8.3582   19.4830 C   0  0  0  0  0  0  0  0  0  0  0  0
   23.1248    7.4654   17.3456 N   0  0  0  0  0  0  0  0  0  0  0  0
   22.0911    6.9056   19.2616 N   0  0  0  0  0  0  0  0  0  0  0  0
   23.0343    7.5641   18.6514 C   0  0  0  0  0  0  0  0  0  0  0  0
   23.8298    7.9541   16.8626 H   0  0  0  0  0  0  0  0  0  0  0  0
   22.4876    6.9025   16.8491 H   0  0  0  0  0  0  0  0  0  0  0  0
   22.0038    6.9644   20.2404 H   0  0  0  0  0  0  0  0  0  0  0  0
   28.0740   10.6777   19.6288 C   0  0  0  0  0  0  0  0  0  0  0  0
   28.4195   12.0339   20.2064 C   0  0  0  0  0  0  0  0  0  0  0  0
   29.6248   12.6275   18.1040 C   0  0  0  0  0  0  0  0  0  0  0  0
   28.6754   12.9811   19.0566 C   0  0  0  0  0  0  0  0  0  0  0  0
   29.8388   13.4594   17.0023 C   0  0  0  0  0  0  0  0  0  0  0  0
   29.1590   14.6864   16.8651 C   0  0  0  0  0  0  0  0  0  0  0  0
   28.2238   15.0505   17.8487 C   0  0  0  0  0  0  0  0  0  0  0  0
   27.9705   14.1897   18.9209 C   0  0  0  0  0  0  0  0  0  0  0  0
   30.2736   15.2043   14.6816 N   0  0  0  0  0  0  0  0  0  0  0  0
   28.9851   16.8156   15.6322 N   0  0  0  0  0  0  0  0  0  0  0  0
   29.4808   15.5940   15.6828 C   0  0  0  0  0  0  0  0  0  0  0  0
   30.6621   14.2997   14.6848 H   0  0  0  0  0  0  0  0  0  0  0  0
   30.4696   15.8215   13.9401 H   0  0  0  0  0  0  0  0  0  0  0  0
   28.3965   17.1382   16.3524 H   0  0  0  0  0  0  0  0  0  0  0  0
   26.9691   10.2043   17.3634 C   0  0  0  0  0  0  0  0  0  0  0  0
   27.9226    7.9920   17.3275 O   0  0  0  0  0  0  0  0  0  0  0  0
   28.0935    9.1882   17.0899 C   0  0  0  0  0  0  0  0  0  0  0  0
   29.2626    9.6555   16.5275 O   0  0  0  0  0  0  0  0  0  0  0  0
   30.5561    9.0936   16.7229 C   0  0  0  0  0  0  0  0  0  0  0  0
  2  3  2  0  0  0
  2  7  1  0  0  0
  3  4  1  0  0  0
  4  5  2  0  0  0
  5  6  1  0  0  0
  5  1  1  0  0  0
 31 32  1  0  0  0
  6  7  2  0  0  0
  7 10  1  0  0  0
 16 18  2  0  0  0
 14 15  1  0  0  0
 14  1  1  0  0  0
  1 28  1  0  0  0
 15 17  1  0  0  0
 16 17  1  0  0  0
 17 21  2  0  0  0
 18 19  1  0  0  0
 28 30  1  0  0  0
 19 24  1  0  0  0
 19 20  2  0  0  0
 22 24  1  0  0  0
 23 24  2  0  0  0
 20 21  1  0  0  0
  8 10  1  0  0  0
  9 10  2  0  0  0
 29 30  2  0  0  0
 31 30  1  0  0  0
 22 25  1  0  0  0
 22 26  1  0  0  0
 23 27  1  0  0  0
  8 11  1  0  0  0
  8 12  1  0  0  0
  9 13  1  0  0  0
M  END
> <minimizedAffinity>
-7.36546

$$$$
1AZ8


 32 33  0  0  0  0  0  0  0  0999 V2000
   26.7323   10.0950   20.1639 C   0  0  0  0  0  0  0  0  0  0  0  0
   24.6433    8.7487   16.7444 C   0  0  0  0  0  0  0  0  0  0  0  0
   25.7660    9.5407   16.5363 C   0  0  0  0  0  0  0  0  0  0  0  0
   26.4793   10.0029   17.6424 C   0  0  0  0  0  0  0  0  0  0  0  0
   26.0600    9.6639   18.9430 C   0  0  0  0  0  0  0  0  0  0  0  0
   24.9657    8.8435   19.1320 C   0  0  0  0  0  0  0  0  0  0  0  0
   24.2647    8.3823   18.0397 C   0  0  0  0  0  0  0  0  0  0  0  0
   22.2445    7.1589   17.3126 N   0  0  0  0  0  0  0  0  0  0  0  0
   22.8705    7.0552   19.4690 N   0  0  0  0  0  0  0  0  0  0  0  0
   23.0726    7.5138   18.2672 C   0  0  0  0  0  0  0  0  0  0  0  0
   22.3774    7.4931   16.3962 H   0  0  0  0  0  0  0  0  0  0  0  0
   21.4905    6.5584   17.5131 H   0  0  0  0  0  0  0  0  0  0  0  0
   23.4786    7.3077   20.2010 H   0  0  0  0  0  0  0  0  0  0  0  0
   26.8919   11.5997   20.0657 C   0  0  0  0  0  0  0  0  0  0  0  0
   28.3258   12.0754   20.1657 C   0  0  0  0  0  0  0  0  0  0  0  0
   29.2321   12.5087   17.8818 C   0  0  0  0  0  0  0  0  0  0  0  0
   28.5905   13.0112   19.0085 C   0  0  0  0  0  0  0  0  0  0  0  0
   29.4374   13.3394   16.7776 C   0  0  0  0  0  0  0  0  0  0  0  0
   29.0663   14.6989   16.8018 C   0  0  0  0  0  0  0  0  0  0  0  0
   28.4464   15.2060   17.9564 C   0  0  0  0  0  0  0  0  0  0  0  0
   28.1913   14.3586   19.0388 C   0  0  0  0  0  0  0  0  0  0  0  0
   30.2301   15.2079   14.6420 N   0  0  0  0  0  0  0  0  0  0  0  0
   28.8123   16.7694   15.4857 N   0  0  0  0  0  0  0  0  0  0  0  0
   29.3779   15.5829   15.5991 C   0  0  0  0  0  0  0  0  0  0  0  0
   30.6716   14.3294   14.6925 H   0  0  0  0  0  0  0  0  0  0  0  0
   30.4169   15.8100   13.8858 H   0  0  0  0  0  0  0  0  0  0  0  0
   28.1785   17.0802   16.1720 H   0  0  0  0  0  0  0  0  0  0  0  0
   26.0577    9.6271   21.4762 C   0  0  0  0  0  0  0  0  0  0  0  0
   27.5342    8.1608   22.6906 O   0  0  0  0  0  0  0  0  0  0  0  0
   26.9946    9.2667   22.6442 C   0  0  0  0  0  0  0  0  0  0  0  0
   27.2438   10.2351   23.5937 O   0  0  0  0  0  0  0  0  0  0  0  0
   28.4774   10.9241   23.7677 C   0  0  0  0  0  0  0  0  0  0  0  0
  2  3  2  0  0  0
  2  7  1  0  0  0
  3  4  1  0  0  0
  4  5  2  0  0  0
  5  6  1  0  0  0
  5  1  1  0  0  0
 31 32  1  0  0  0
  6  7  2  0  0  0
  7 10  1  0  0  0
 16 18  2  0  0  0
 14 15  1  0  0  0
 14  1  1  0  0  0
  1 28  1  0  0  0
 15 17  1  0  0  0
 16 17  1  0  0  0
 17 21  2  0  0  0
 18 19  1  0  0  0
 28 30  1  0  0  0
 19 24  1  0  0  0
 19 20  2  0  0  0
 22 24  1  0  0  0
 23 24  2  0  0  0
 20 21  1  0  0  0
  8 10  1  0  0  0
  9 10  2  0  0  0
 29 30  2  0  0  0
 31 30  1  0  0  0
 22 25  1  0  0  0
 22 26  1  0  0  0
 23 27  1  0  0  0
  8 11  1  0  0  0
  8 12  1  0  0  0
  9 13  1  0  0  0
M  END
> <minimizedAffinity>
-7.33696

$$$$
1AZ8


 32 33  0  0  0  0  0  0  0  0999 V2000
   28.2884   10.0098   17.6689 C   0  0  0  0  0  0  0  0  0  0  0  0
   24.2856    8.6890   17.3474 C   0  0  0  0  0  0  0  0  0  0  0  0
   25.0022    8.8489   16.1675 C   0  0  0  0  0  0  0  0  0  0  0  0
   26.3259    9.2838   16.2365 C   0  0  0  0  0  0  0  0  0  0  0  0
   26.9155    9.5508   17.4868 C   0  0  0  0  0  0  0  0  0  0  0  0
   26.2030    9.3490   18.6520 C   0  0  0  0  0  0  0  0  0  0  0  0
   24.8977    8.9141   18.5843 C   0  0  0  0  0  0  0  0  0  0  0  0
   24.2183    9.5450   20.8749 N   0  0  0  0  0  0  0  0  0  0  0  0
   23.3281    7.7069   19.9360 N   0  0  0  0  0  0  0  0  0  0  0  0
   24.1390    8.7225   19.8550 C   0  0  0  0  0  0  0  0  0  0  0  0
   24.8245   10.3198   20.8365 H   0  0  0  0  0  0  0  0  0  0  0  0
   23.6716    9.3871   21.6783 H   0  0  0  0  0  0  0  0  0  0  0  0
   23.2518    7.0767   19.1835 H   0  0  0  0  0  0  0  0  0  0  0  0
   28.3794   10.5644   19.0772 C   0  0  0  0  0  0  0  0  0  0  0  0
   29.5352   11.5190   19.2902 C   0  0  0  0  0  0  0  0  0  0  0  0
   29.8828   13.0956   17.3879 C   0  0  0  0  0  0  0  0  0  0  0  0
   29.2140   12.8104   18.5734 C   0  0  0  0  0  0  0  0  0  0  0  0
   29.5629   14.2554   16.6780 C   0  0  0  0  0  0  0  0  0  0  0  0
   28.6201   15.1810   17.1690 C   0  0  0  0  0  0  0  0  0  0  0  0
   27.9717   14.8998   18.3835 C   0  0  0  0  0  0  0  0  0  0  0  0
   28.2526   13.7110   19.0637 C   0  0  0  0  0  0  0  0  0  0  0  0
   29.1828   16.9024   15.4374 N   0  0  0  0  0  0  0  0  0  0  0  0
   27.2993   17.2036   16.6710 N   0  0  0  0  0  0  0  0  0  0  0  0
   28.3590   16.4680   16.3942 C   0  0  0  0  0  0  0  0  0  0  0  0
   29.9839   16.3803   15.2032 H   0  0  0  0  0  0  0  0  0  0  0  0
   28.9891   17.7447   14.9661 H   0  0  0  0  0  0  0  0  0  0  0  0
   26.6691   16.9155   17.3704 H   0  0  0  0  0  0  0  0  0  0  0  0
   29.3738    8.9542   17.3465 C   0  0  0  0  0  0  0  0  0  0  0  0
   30.0917    8.7895   15.0526 O   0  0  0  0  0  0  0  0  0  0  0  0
   30.3123    9.2667   16.1662 C   0  0  0  0  0  0  0  0  0  0  0  0
   31.3632   10.1313   16.3889 O   0  0  0  0  0  0  0  0  0  0  0  0
   32.6693    9.7532   16.8109 C   0  0  0  0  0  0  0  0  0  0  0  0
  2  3  2  0  0  0
  2  7  1  0  0  0
  3  4  1  0  0  0
  4  5  2  0  0  0
  5  6  1  0  0  0
  5  1  1  0  0  0
 31 32  1  0  0  0
  6  7  2  0  0  0
  7 10  1  0  0  0
 16 18  2  0  0  0
 14 15  1  0  0  0
 14  1  1  0  0  0
  1 28  1  0  0  0
 15 17  1  0  0  0
 16 17  1  0  0  0
 17 21  2  0  0  0
 18 19  1  0  0  0
 28 30  1  0  0  0
 19 24  1  0  0  0
 19 20  2  0  0  0
 22 24  1  0  0  0
 23 24  2  0  0  0
 20 21  1  0  0  0
  8 10  1  0  0  0
  9 10  2  0  0  0
 29 30  2  0  0  0
 31 30  1  0  0  0
 22 25  1  0  0  0
 22 26  1  0  0  0
 23 27  1  0  0  0
  8 11  1  0  0  0
  8 12  1  0  0  0
  9 13  1  0  0  0
M  END
> <minimizedAffinity>
-7.32622

$$$$
1AZ8


 32 33  0  0  0  0  0  0  0  0999 V2000
   27.9329   10.2062   19.1319 C   0  0  0  0  0  0  0  0  0  0  0  0
   24.2600    8.4392   18.0105 C   0  0  0  0  0  0  0  0  0  0  0  0
   24.5157    8.5732   19.3698 C   0  0  0  0  0  0  0  0  0  0  0  0
   25.7184    9.1518   19.7757 C   0  0  0  0  0  0  0  0  0  0  0  0
   26.6488    9.5907   18.8145 C   0  0  0  0  0  0  0  0  0  0  0  0
   26.3629    9.4868   17.4678 C   0  0  0  0  0  0  0  0  0  0  0  0
   25.1728    8.9208   17.0669 C   0  0  0  0  0  0  0  0  0  0  0  0
   23.7204    8.4632   15.1207 N   0  0  0  0  0  0  0  0  0  0  0  0
   25.8539    9.0800   14.7737 N   0  0  0  0  0  0  0  0  0  0  0  0
   24.8928    8.7991   15.6061 C   0  0  0  0  0  0  0  0  0  0  0  0
   22.9787    8.2466   15.7307 H   0  0  0  0  0  0  0  0  0  0  0  0
   23.5828    8.4278   14.1464 H   0  0  0  0  0  0  0  0  0  0  0  0
   26.7417    9.3345   15.1147 H   0  0  0  0  0  0  0  0  0  0  0  0
   27.6508   11.3152   20.1268 C   0  0  0  0  0  0  0  0  0  0  0  0
   28.8181   12.2526   20.3524 C   0  0  0  0  0  0  0  0  0  0  0  0
   29.8316   12.8046   18.1403 C   0  0  0  0  0  0  0  0  0  0  0  0
   28.9352   13.1537   19.1444 C   0  0  0  0  0  0  0  0  0  0  0  0
   29.9170   13.5909   16.9887 C   0  0  0  0  0  0  0  0  0  0  0  0
   29.1598   14.7712   16.8470 C   0  0  0  0  0  0  0  0  0  0  0  0
   28.2791   15.1330   17.8806 C   0  0  0  0  0  0  0  0  0  0  0  0
   28.1542   14.3143   19.0070 C   0  0  0  0  0  0  0  0  0  0  0  0
   30.1653   15.2879   14.6110 N   0  0  0  0  0  0  0  0  0  0  0  0
   28.6892   16.7751   15.4882 N   0  0  0  0  0  0  0  0  0  0  0  0
   29.3424   15.6346   15.6036 C   0  0  0  0  0  0  0  0  0  0  0  0
   30.6698   14.4440   14.6618 H   0  0  0  0  0  0  0  0  0  0  0  0
   30.2678   15.8763   13.8283 H   0  0  0  0  0  0  0  0  0  0  0  0
   28.0735   17.0639   16.2000 H   0  0  0  0  0  0  0  0  0  0  0  0
   29.0287    9.2176   19.5992 C   0  0  0  0  0  0  0  0  0  0  0  0
   29.9895    7.3786   18.3747 O   0  0  0  0  0  0  0  0  0  0  0  0
   29.9163    8.6013   18.5020 C   0  0  0  0  0  0  0  0  0  0  0  0
   30.5744    9.4596   17.6467 O   0  0  0  0  0  0  0  0  0  0  0  0
   30.3181    9.5950   16.2527 C   0  0  0  0  0  0  0  0  0  0  0  0
  2  3  2  0  0  0
  2  7  1  0  0  0
  3  4  1  0  0  0
  4  5  2  0  0  0
  5  6  1  0  0  0
  5  1  1  0  0  0
 31 32  1  0  0  0
  6  7  2  0  0  0
  7 10  1  0  0  0
 16 18  2  0  0  0
 14 15  1  0  0  0
 14  1  1  0  0  0
  1 28  1  0  0  0
 15 17  1  0  0  0
 16 17  1  0  0  0
 17 21  2  0  0  0
 18 19  1  0  0  0
 28 30  1  0  0  0
 19 24  1  0  0  0
 19 20  2  0  0  0
 22 24  1  0  0  0
 23 24  2  0  0  0
 20 21  1  0  0  0
  8 10  1  0  0  0
  9 10  2  0  0  0
 29 30  2  0  0  0
 31 30  1  0  0  0
 22 25  1  0  0  0
 22 26  1  0  0  0
 23 27  1  0  0  0
  8 11  1  0  0  0
  8 12  1  0  0  0
  9 13  1  0  0  0
M  END
> <minimizedAffinity>
-7.11327

$$$$
1AZ8


 32 33  0  0  0  0  0  0  0  0999 V2000
   29.8825   11.8529   18.3025 C   0  0  0  0  0  0  0  0  0  0  0  0
   26.4360   10.7329   20.4791 C   0  0  0  0  0  0  0  0  0  0  0  0
   26.2854   10.9588   19.1162 C   0  0  0  0  0  0  0  0  0  0  0  0
   27.4020   11.3303   18.3670 C   0  0  0  0  0  0  0  0  0  0  0  0
   28.6558   11.4687   18.9924 C   0  0  0  0  0  0  0  0  0  0  0  0
   28.7970   11.2022   20.3397 C   0  0  0  0  0  0  0  0  0  0  0  0
   27.6957   10.8297   21.0784 C   0  0  0  0  0  0  0  0  0  0  0  0
   28.2148    9.3987   23.0251 N   0  0  0  0  0  0  0  0  0  0  0  0
   27.6986   11.5604   23.3619 N   0  0  0  0  0  0  0  0  0  0  0  0
   27.8666   10.5666   22.5375 C   0  0  0  0  0  0  0  0  0  0  0  0
   28.3475    8.6328   22.4210 H   0  0  0  0  0  0  0  0  0  0  0  0
   28.3432    9.2887   23.9950 H   0  0  0  0  0  0  0  0  0  0  0  0
   27.4375   12.4456   23.0191 H   0  0  0  0  0  0  0  0  0  0  0  0
   30.8044   10.6499   18.3499 C   0  0  0  0  0  0  0  0  0  0  0  0
   31.4432   10.3101   17.0199 C   0  0  0  0  0  0  0  0  0  0  0  0
   33.4609   10.5647   18.4653 C   0  0  0  0  0  0  0  0  0  0  0  0
   32.9346   10.1893   17.2341 C   0  0  0  0  0  0  0  0  0  0  0  0
   34.8281   10.4093   18.7066 C   0  0  0  0  0  0  0  0  0  0  0  0
   35.7022    9.9395   17.7058 C   0  0  0  0  0  0  0  0  0  0  0  0
   35.1662    9.5917   16.4543 C   0  0  0  0  0  0  0  0  0  0  0  0
   33.7895    9.6949   16.2337 C   0  0  0  0  0  0  0  0  0  0  0  0
   38.1162   10.0170   17.0388 N   0  0  0  0  0  0  0  0  0  0  0  0
   37.6222    9.6033   19.2171 N   0  0  0  0  0  0  0  0  0  0  0  0
   37.1972    9.8569   17.9941 C   0  0  0  0  0  0  0  0  0  0  0  0
   37.8371   10.2074   16.1141 H   0  0  0  0  0  0  0  0  0  0  0  0
   39.0730    9.9447   17.2592 H   0  0  0  0  0  0  0  0  0  0  0  0
   36.9740    9.4793   19.9476 H   0  0  0  0  0  0  0  0  0  0  0  0
   29.6752   12.4198   16.8770 C   0  0  0  0  0  0  0  0  0  0  0  0
   29.2497   14.4582   15.6653 O   0  0  0  0  0  0  0  0  0  0  0  0
   29.3984   13.9308   16.7680 C   0  0  0  0  0  0  0  0  0  0  0  0
   29.2726   14.6496   17.9380 O   0  0  0  0  0  0  0  0  0  0  0  0
   28.0570   15.1800   18.4557 C   0  0  0  0  0  0  0  0  0  0  0  0
  2  3  2  0  0  0
  2  7  1  0  0  0
  3  4  1  0  0  0
  4  5  2  0  0  0
  5  6  1  0  0  0
  5  1  1  0  0  0
 31 32  1  0  0  0
  6  7  2  0  0  0
  7 10  1  0  0  0
 16 18  2  0  0  0
 14 15  1  0  0  0
 14  1  1  0  0  0
  1 28  1  0  0  0
 15 17  1  0  0  0
 16 17  1  0  0  0
 17 21  2  0  0  0
 18 19  1  0  0  0
 28 30  1  0  0  0
 19 24  1  0  0  0
 19 20  2  0  0  0
 22 24  1  0  0  0
 23 24  2  0  0  0
 20 21  1  0  0  0
  8 10  1  0  0  0
  9 10  2  0  0  0
 29 30  2  0  0  0
 31 30  1  0  0  0
 22 25  1  0  0  0
 22 26  1  0  0  0
 23 27  1  0  0  0
  8 11  1  0  0  0
  8 12  1  0  0  0
  9 13  1  0  0  0
M  END
> <minimizedAffinity>
-7.08813

$$$$
1AZ8


 32 33  0  0  0  0  0  0  0  0999 V2000
   26.2418    8.7218   17.8160 C   0  0  0  0  0  0  0  0  0  0  0  0
   23.1350    8.3480   20.6582 C   0  0  0  0  0  0  0  0  0  0  0  0
   24.1358    9.2748   20.9240 C   0  0  0  0  0  0  0  0  0  0  0  0
   25.1769    9.4241   20.0076 C   0  0  0  0  0  0  0  0  0  0  0  0
   25.2009    8.6446   18.8355 C   0  0  0  0  0  0  0  0  0  0  0  0
   24.1785    7.7566   18.5665 C   0  0  0  0  0  0  0  0  0  0  0  0
   23.1474    7.6132   19.4685 C   0  0  0  0  0  0  0  0  0  0  0  0
   21.3458    6.6627   18.0694 N   0  0  0  0  0  0  0  0  0  0  0  0
   21.8484    5.6767   20.0259 N   0  0  0  0  0  0  0  0  0  0  0  0
   22.0632    6.6327   19.1682 C   0  0  0  0  0  0  0  0  0  0  0  0
   21.4905    7.3760   17.4064 H   0  0  0  0  0  0  0  0  0  0  0  0
   20.6631    5.9720   17.9082 H   0  0  0  0  0  0  0  0  0  0  0  0
   22.3743    5.6338   20.8571 H   0  0  0  0  0  0  0  0  0  0  0  0
   25.7726    7.8753   16.6488 C   0  0  0  0  0  0  0  0  0  0  0  0
   25.6627    8.6330   15.3426 C   0  0  0  0  0  0  0  0  0  0  0  0
   23.2074    9.0004   15.5913 C   0  0  0  0  0  0  0  0  0  0  0  0
   24.2487    8.4805   14.8304 C   0  0  0  0  0  0  0  0  0  0  0  0
   21.8975    8.9216   15.1121 C   0  0  0  0  0  0  0  0  0  0  0  0
   21.5965    8.2676   13.9004 C   0  0  0  0  0  0  0  0  0  0  0  0
   22.6519    7.7178   13.1530 C   0  0  0  0  0  0  0  0  0  0  0  0
   23.9678    7.8473   13.6072 C   0  0  0  0  0  0  0  0  0  0  0  0
   19.4975    6.9750   13.4516 N   0  0  0  0  0  0  0  0  0  0  0  0
   19.4848    9.2093   13.0418 N   0  0  0  0  0  0  0  0  0  0  0  0
   20.1432    8.1437   13.4560 C   0  0  0  0  0  0  0  0  0  0  0  0
   19.9562    6.1580   13.7537 H   0  0  0  0  0  0  0  0  0  0  0  0
   18.5626    6.9304   13.1463 H   0  0  0  0  0  0  0  0  0  0  0  0
   19.9279   10.0883   13.0308 H   0  0  0  0  0  0  0  0  0  0  0  0
   26.6515   10.1596   17.4144 C   0  0  0  0  0  0  0  0  0  0  0  0
   29.0600   10.1322   17.3628 O   0  0  0  0  0  0  0  0  0  0  0  0
   28.0489   10.6294   17.8596 C   0  0  0  0  0  0  0  0  0  0  0  0
   28.1223   11.6504   18.7835 O   0  0  0  0  0  0  0  0  0  0  0  0
   28.1431   13.0410   18.4787 C   0  0  0  0  0  0  0  0  0  0  0  0
  2  3  2  0  0  0
  2  7  1  0  0  0
  3  4  1  0  0  0
  4  5  2  0  0  0
  5  6  1  0  0  0
  5  1  1  0  0  0
 31 32  1  0  0  0
  6  7  2  0  0  0
  7 10  1  0  0  0
 16 18  2  0  0  0
 14 15  1  0  0  0
 14  1  1  0  0  0
  1 28  1  0  0  0
 15 17  1  0  0  0
 16 17  1  0  0  0
 17 21  2  0  0  0
 18 19  1  0  0  0
 28 30  1  0  0  0
 19 24  1  0  0  0
 19 20  2  0  0  0
 22 24  1  0  0  0
 23 24  2  0  0  0
 20 21  1  0  0  0
  8 10  1  0  0  0
  9 10  2  0  0  0
 29 30  2  0  0  0
 31 30  1  0  0  0
 22 25  1  0  0  0
 22 26  1  0  0  0
 23 27  1  0  0  0
  8 11  1  0  0  0
  8 12  1  0  0  0
  9 13  1  0  0  0
M  END
> <minimizedAffinity>
-6.97520

$$$$
1AZ8


 32 33  0  0  0  0  0  0  0  0999 V2000
   28.0841   10.9331   19.6750 C   0  0  0  0  0  0  0  0  0  0  0  0
   28.3315    9.2554   23.5472 C   0  0  0  0  0  0  0  0  0  0  0  0
   28.3068    8.3768   22.4708 C   0  0  0  0  0  0  0  0  0  0  0  0
   28.2252    8.8961   21.1786 C   0  0  0  0  0  0  0  0  0  0  0  0
   28.1716   10.2890   20.9812 C   0  0  0  0  0  0  0  0  0  0  0  0
   28.2370   11.1499   22.0586 C   0  0  0  0  0  0  0  0  0  0  0  0
   28.3234   10.6374   23.3343 C   0  0  0  0  0  0  0  0  0  0  0  0
   27.5309   11.5423   25.4929 N   0  0  0  0  0  0  0  0  0  0  0  0
   29.3237   12.4736   24.5073 N   0  0  0  0  0  0  0  0  0  0  0  0
   28.3719   11.5852   24.4860 C   0  0  0  0  0  0  0  0  0  0  0  0
   26.8033   10.8792   25.4987 H   0  0  0  0  0  0  0  0  0  0  0  0
   27.6278   12.1734   26.2424 H   0  0  0  0  0  0  0  0  0  0  0  0
   29.9663   12.5245   23.7632 H   0  0  0  0  0  0  0  0  0  0  0  0
   26.6165   11.2259   19.4307 C   0  0  0  0  0  0  0  0  0  0  0  0
   25.9570   10.2875   18.4423 C   0  0  0  0  0  0  0  0  0  0  0  0
   24.6061    9.8045   20.4836 C   0  0  0  0  0  0  0  0  0  0  0  0
   24.9814    9.4177   19.2017 C   0  0  0  0  0  0  0  0  0  0  0  0
   23.6632    9.0477   21.1835 C   0  0  0  0  0  0  0  0  0  0  0  0
   23.1284    7.8599   20.6453 C   0  0  0  0  0  0  0  0  0  0  0  0
   23.5369    7.4600   19.3617 C   0  0  0  0  0  0  0  0  0  0  0  0
   24.4380    8.2492   18.6406 C   0  0  0  0  0  0  0  0  0  0  0  0
   21.0883    7.5667   22.0702 N   0  0  0  0  0  0  0  0  0  0  0  0
   22.3688    5.7385   21.6484 N   0  0  0  0  0  0  0  0  0  0  0  0
   22.1578    7.0297   21.4782 C   0  0  0  0  0  0  0  0  0  0  0  0
   20.8983    8.5271   21.9660 H   0  0  0  0  0  0  0  0  0  0  0  0
   20.4897    7.0024   22.6109 H   0  0  0  0  0  0  0  0  0  0  0  0
   23.1472    5.3072   21.2273 H   0  0  0  0  0  0  0  0  0  0  0  0
   29.0008   12.1677   19.4975 C   0  0  0  0  0  0  0  0  0  0  0  0
   27.9028   14.3120   19.4675 O   0  0  0  0  0  0  0  0  0  0  0  0
   28.3813   13.3937   18.8011 C   0  0  0  0  0  0  0  0  0  0  0  0
   28.4303   13.4467   17.4241 O   0  0  0  0  0  0  0  0  0  0  0  0
   29.2762   14.2991   16.6593 C   0  0  0  0  0  0  0  0  0  0  0  0
  2  3  2  0  0  0
  2  7  1  0  0  0
  3  4  1  0  0  0
  4  5  2  0  0  0
  5  6  1  0  0  0
  5  1  1  0  0  0
 31 32  1  0  0  0
  6  7  2  0  0  0
  7 10  1  0  0  0
 16 18  2  0  0  0
 14 15  1  0  0  0
 14  1  1  0  0  0
  1 28  1  0  0  0
 15 17  1  0  0  0
 16 17  1  0  0  0
 17 21  2  0  0  0
 18 19  1  0  0  0
 28 30  1  0  0  0
 19 24  1  0  0  0
 19 20  2  0  0  0
 22 24  1  0  0  0
 23 24  2  0  0  0
 20 21  1  0  0  0
  8 10  1  0  0  0
  9 10  2  0  0  0
 29 30  2  0  0  0
 31 30  1  0  0  0
 22 25  1  0  0  0
 22 26  1  0  0  0
 23 27  1  0  0  0
  8 11  1  0  0  0
  8 12  1  0  0  0
  9 13  1  0  0  0
M  END
> <minimizedAffinity>
-6.97177

$$$$
