1XOZ


 29 34  0  0  0  0  0  0  0  0999 V2000
   28.1773   48.7938   41.3131 C   0  0  0  0  0  0  0  0  0  0  0  0
   26.9575   48.1382   41.2771 C   0  0  0  0  0  0  0  0  0  0  0  0
   26.5800   47.0818   42.1492 C   0  0  0  0  0  0  0  0  0  0  0  0
   27.4850   46.6345   43.1385 C   0  0  0  0  0  0  0  0  0  0  0  0
   28.7057   47.2864   43.1798 C   0  0  0  0  0  0  0  0  0  0  0  0
   29.0550   48.3279   42.3076 C   0  0  0  0  0  0  0  0  0  0  0  0
   30.4177   48.7423   42.6716 C   0  0  0  0  0  0  0  0  0  0  0  0
   30.7639   47.9355   43.7061 C   0  0  0  0  0  0  0  0  0  0  0  0
   29.7847   47.1003   44.0014 N   0  0  0  0  0  0  0  0  0  0  0  0
   31.2931   49.8086   42.0759 C   0  0  0  0  0  0  0  0  0  0  0  0
   32.3281   50.2958   43.0983 C   0  0  0  0  0  0  0  0  0  0  0  0
   32.8287   49.2695   44.0193 N   0  0  0  0  0  0  0  0  0  0  0  0
   32.0908   48.0608   44.3436 C   0  0  0  0  0  0  0  0  0  0  0  0
   34.4805   51.4325   43.2451 N   0  0  0  0  0  0  0  0  0  0  0  0
   34.8246   50.5958   44.3945 C   0  0  0  0  0  0  0  0  0  0  0  0
   34.0120   49.4074   44.6551 C   0  0  0  0  0  0  0  0  0  0  0  0
   35.4211   52.4277   42.7640 C   0  0  0  0  0  0  0  0  0  0  0  0
   34.4560   48.6018   45.4332 O   0  0  0  0  0  0  0  0  0  0  0  0
   33.3133   51.3171   42.6247 C   0  0  0  0  0  0  0  0  0  0  0  0
   32.9575   51.9994   41.6500 O   0  0  0  0  0  0  0  0  0  0  0  0
   32.8302   46.7357   43.9467 C   0  0  0  0  0  0  0  0  0  0  0  0
   33.5428   46.6291   42.7635 C   0  0  0  0  0  0  0  0  0  0  0  0
   34.1793   45.4216   42.4682 C   0  0  0  0  0  0  0  0  0  0  0  0
   34.1151   44.3537   43.3067 C   0  0  0  0  0  0  0  0  0  0  0  0
   33.4196   44.4042   44.4932 C   0  0  0  0  0  0  0  0  0  0  0  0
   32.7912   45.5929   44.7934 C   0  0  0  0  0  0  0  0  0  0  0  0
   34.9214   45.1473   41.3468 O   0  0  0  0  0  0  0  0  0  0  0  0
   35.5482   43.8923   41.7453 C   0  0  0  0  0  0  0  0  0  0  0  0
   34.8104   43.2925   42.8046 O   0  0  0  0  0  0  0  0  0  0  0  0
  1  6  2  0  0  0
  1  2  1  0  0  0
  2  3  1  0  0  0
  3  4  2  0  0  0
  4  5  1  0  0  0
  5  6  1  0  0  0
  6  7  1  0  0  0
  7  8  2  0  0  0
  7 10  1  0  0  0
  8  9  1  0  0  0
  8 13  1  0  0  0
  5  9  2  0  0  0
 10 11  1  0  0  0
 11 12  1  0  0  0
 12 16  1  0  0  0
 12 13  1  0  0  0
 13 21  1  0  0  0
 14 17  1  0  0  0
 14 19  1  0  0  0
 14 15  1  0  0  0
 15 16  1  0  0  0
 16 18  2  0  0  0
 21 22  2  0  0  0
 21 26  1  0  0  0
 22 23  1  0  0  0
 23 24  2  0  0  0
 24 29  1  0  0  0
 24 25  1  0  0  0
 25 26  2  0  0  0
 23 27  1  0  0  0
 27 28  1  0  0  0
 28 29  1  0  0  0
 11 19  1  0  0  0
 19 20  2  0  0  0
M  END
> <minimizedAffinity>
-6.35119

$$$$
1XOZ


 29 34  0  0  0  0  0  0  0  0999 V2000
   28.1153   48.7789   41.3121 C   0  0  0  0  0  0  0  0  0  0  0  0
   26.8825   48.1487   41.2639 C   0  0  0  0  0  0  0  0  0  0  0  0
   26.4745   47.1005   42.1321 C   0  0  0  0  0  0  0  0  0  0  0  0
   27.3602   46.6345   43.1302 C   0  0  0  0  0  0  0  0  0  0  0  0
   28.5937   47.2609   43.1836 C   0  0  0  0  0  0  0  0  0  0  0  0
   28.9732   48.2949   42.3151 C   0  0  0  0  0  0  0  0  0  0  0  0
   30.3405   48.6810   42.6926 C   0  0  0  0  0  0  0  0  0  0  0  0
   30.6597   47.8672   43.7304 C   0  0  0  0  0  0  0  0  0  0  0  0
   29.6605   47.0526   44.0159 N   0  0  0  0  0  0  0  0  0  0  0  0
   31.2437   49.7288   42.1057 C   0  0  0  0  0  0  0  0  0  0  0  0
   32.2785   50.1945   43.1384 C   0  0  0  0  0  0  0  0  0  0  0  0
   32.7485   49.1581   44.0641 N   0  0  0  0  0  0  0  0  0  0  0  0
   31.9825   47.9650   44.3810 C   0  0  0  0  0  0  0  0  0  0  0  0
   34.4524   51.2863   43.3066 N   0  0  0  0  0  0  0  0  0  0  0  0
   34.7678   50.4427   44.4592 C   0  0  0  0  0  0  0  0  0  0  0  0
   33.9281   49.2714   44.7116 C   0  0  0  0  0  0  0  0  0  0  0  0
   35.4182   52.2617   42.8349 C   0  0  0  0  0  0  0  0  0  0  0  0
   34.3475   48.4569   45.4940 O   0  0  0  0  0  0  0  0  0  0  0  0
   33.2893   51.1950   42.6746 C   0  0  0  0  0  0  0  0  0  0  0  0
   32.9574   51.8845   41.6965 O   0  0  0  0  0  0  0  0  0  0  0  0
   32.6981   46.6248   43.9913 C   0  0  0  0  0  0  0  0  0  0  0  0
   32.6426   45.5083   44.8097 C   0  0  0  0  0  0  0  0  0  0  0  0
   33.3011   44.3449   44.4056 C   0  0  0  0  0  0  0  0  0  0  0  0
   33.9933   44.2820   43.2374 C   0  0  0  0  0  0  0  0  0  0  0  0
   34.0825   45.3614   42.3884 C   0  0  0  0  0  0  0  0  0  0  0  0
   33.4332   46.5123   42.7784 C   0  0  0  0  0  0  0  0  0  0  0  0
   33.3475   43.1574   45.0919 O   0  0  0  0  0  0  0  0  0  0  0  0
   33.8929   42.2789   44.0636 C   0  0  0  0  0  0  0  0  0  0  0  0
   34.5490   43.0483   43.0617 O   0  0  0  0  0  0  0  0  0  0  0  0
  1  6  2  0  0  0
  1  2  1  0  0  0
  2  3  1  0  0  0
  3  4  2  0  0  0
  4  5  1  0  0  0
  5  6  1  0  0  0
  6  7  1  0  0  0
  7  8  2  0  0  0
  7 10  1  0  0  0
  8  9  1  0  0  0
  8 13  1  0  0  0
  5  9  2  0  0  0
 10 11  1  0  0  0
 11 12  1  0  0  0
 12 16  1  0  0  0
 12 13  1  0  0  0
 13 21  1  0  0  0
 14 17  1  0  0  0
 14 19  1  0  0  0
 14 15  1  0  0  0
 15 16  1  0  0  0
 16 18  2  0  0  0
 21 22  2  0  0  0
 21 26  1  0  0  0
 22 23  1  0  0  0
 23 24  2  0  0  0
 24 29  1  0  0  0
 24 25  1  0  0  0
 25 26  2  0  0  0
 23 27  1  0  0  0
 27 28  1  0  0  0
 28 29  1  0  0  0
 11 19  1  0  0  0
 19 20  2  0  0  0
M  END
> <minimizedAffinity>
-6.22817

$$$$
1XOZ


 29 34  0  0  0  0  0  0  0  0999 V2000
   27.6937   46.6782   43.3742 C   0  0  0  0  0  0  0  0  0  0  0  0
   26.5598   46.9074   42.6118 C   0  0  0  0  0  0  0  0  0  0  0  0
   26.4920   47.8028   41.5107 C   0  0  0  0  0  0  0  0  0  0  0  0
   27.6405   48.5349   41.1328 C   0  0  0  0  0  0  0  0  0  0  0  0
   28.7769   48.3097   41.8907 C   0  0  0  0  0  0  0  0  0  0  0  0
   28.8192   47.4192   42.9737 C   0  0  0  0  0  0  0  0  0  0  0  0
   30.1881   47.4704   43.5073 C   0  0  0  0  0  0  0  0  0  0  0  0
   30.8372   48.3645   42.7197 C   0  0  0  0  0  0  0  0  0  0  0  0
   30.0321   48.8470   41.7909 N   0  0  0  0  0  0  0  0  0  0  0  0
   30.8013   46.7303   44.6624 C   0  0  0  0  0  0  0  0  0  0  0  0
   32.3220   46.6196   44.4911 C   0  0  0  0  0  0  0  0  0  0  0  0
   32.9638   47.7690   43.8439 N   0  0  0  0  0  0  0  0  0  0  0  0
   32.2594   48.6831   42.9613 C   0  0  0  0  0  0  0  0  0  0  0  0
   34.3654   46.2358   45.7651 N   0  0  0  0  0  0  0  0  0  0  0  0
   35.0717   47.1598   44.8779 C   0  0  0  0  0  0  0  0  0  0  0  0
   34.2785   48.0296   44.0091 C   0  0  0  0  0  0  0  0  0  0  0  0
   35.0761   45.5860   46.8511 C   0  0  0  0  0  0  0  0  0  0  0  0
   34.8536   48.9491   43.4845 O   0  0  0  0  0  0  0  0  0  0  0  0
   33.0781   45.9595   45.6003 C   0  0  0  0  0  0  0  0  0  0  0  0
   32.4228   45.1813   46.3124 O   0  0  0  0  0  0  0  0  0  0  0  0
   32.2363   50.1677   43.4666 C   0  0  0  0  0  0  0  0  0  0  0  0
   32.5785   51.2221   42.6357 C   0  0  0  0  0  0  0  0  0  0  0  0
   32.5374   52.5214   43.1463 C   0  0  0  0  0  0  0  0  0  0  0  0
   32.1748   52.7754   44.4315 C   0  0  0  0  0  0  0  0  0  0  0  0
   31.8276   51.7658   45.2999 C   0  0  0  0  0  0  0  0  0  0  0  0
   31.8628   50.4812   44.8032 C   0  0  0  0  0  0  0  0  0  0  0  0
   32.8434   53.6724   42.4645 O   0  0  0  0  0  0  0  0  0  0  0  0
   32.3344   54.6737   43.3945 C   0  0  0  0  0  0  0  0  0  0  0  0
   32.2123   54.1131   44.6972 O   0  0  0  0  0  0  0  0  0  0  0  0
  1  6  2  0  0  0
  1  2  1  0  0  0
  2  3  1  0  0  0
  3  4  2  0  0  0
  4  5  1  0  0  0
  5  6  1  0  0  0
  6  7  1  0  0  0
  7  8  2  0  0  0
  7 10  1  0  0  0
  8  9  1  0  0  0
  8 13  1  0  0  0
  5  9  2  0  0  0
 10 11  1  0  0  0
 11 12  1  0  0  0
 12 16  1  0  0  0
 12 13  1  0  0  0
 13 21  1  0  0  0
 14 17  1  0  0  0
 14 19  1  0  0  0
 14 15  1  0  0  0
 15 16  1  0  0  0
 16 18  2  0  0  0
 21 22  2  0  0  0
 21 26  1  0  0  0
 22 23  1  0  0  0
 23 24  2  0  0  0
 24 29  1  0  0  0
 24 25  1  0  0  0
 25 26  2  0  0  0
 23 27  1  0  0  0
 27 28  1  0  0  0
 28 29  1  0  0  0
 11 19  1  0  0  0
 19 20  2  0  0  0
M  END
> <minimizedAffinity>
-6.08344

$$$$
1XOZ


 29 34  0  0  0  0  0  0  0  0999 V2000
   28.3442   48.6246   41.3871 C   0  0  0  0  0  0  0  0  0  0  0  0
   27.0650   48.2579   41.0019 C   0  0  0  0  0  0  0  0  0  0  0  0
   26.2761   47.2701   41.6505 C   0  0  0  0  0  0  0  0  0  0  0  0
   26.7960   46.5857   42.7726 C   0  0  0  0  0  0  0  0  0  0  0  0
   28.0739   46.9483   43.1627 C   0  0  0  0  0  0  0  0  0  0  0  0
   28.8332   47.9280   42.5061 C   0  0  0  0  0  0  0  0  0  0  0  0
   30.1170   48.0121   43.2172 C   0  0  0  0  0  0  0  0  0  0  0  0
   30.0236   47.0991   44.2167 C   0  0  0  0  0  0  0  0  0  0  0  0
   28.8533   46.4881   44.1897 N   0  0  0  0  0  0  0  0  0  0  0  0
   31.3107   48.8858   42.9529 C   0  0  0  0  0  0  0  0  0  0  0  0
   32.1350   49.0813   44.2321 C   0  0  0  0  0  0  0  0  0  0  0  0
   32.1715   47.9259   45.1354 N   0  0  0  0  0  0  0  0  0  0  0  0
   31.1467   46.8962   45.1547 C   0  0  0  0  0  0  0  0  0  0  0  0
   34.3672   49.7047   44.9902 N   0  0  0  0  0  0  0  0  0  0  0  0
   34.2371   48.7574   46.0973 C   0  0  0  0  0  0  0  0  0  0  0  0
   33.1617   47.7671   46.0397 C   0  0  0  0  0  0  0  0  0  0  0  0
   35.5797   50.4892   44.8447 C   0  0  0  0  0  0  0  0  0  0  0  0
   33.2249   46.8462   46.8140 O   0  0  0  0  0  0  0  0  0  0  0  0
   33.3930   49.8809   44.1068 C   0  0  0  0  0  0  0  0  0  0  0  0
   33.4373   50.6719   43.1504 O   0  0  0  0  0  0  0  0  0  0  0  0
   31.6771   45.4613   44.8086 C   0  0  0  0  0  0  0  0  0  0  0  0
   32.6544   45.2616   43.8473 C   0  0  0  0  0  0  0  0  0  0  0  0
   33.0842   43.9588   43.5857 C   0  0  0  0  0  0  0  0  0  0  0  0
   32.5684   42.8878   44.2451 C   0  0  0  0  0  0  0  0  0  0  0  0
   31.5946   43.0290   45.2074 C   0  0  0  0  0  0  0  0  0  0  0  0
   31.1672   44.3114   45.4735 C   0  0  0  0  0  0  0  0  0  0  0  0
   34.0372   43.5856   42.6714 O   0  0  0  0  0  0  0  0  0  0  0  0
   34.2538   42.1987   43.0664 C   0  0  0  0  0  0  0  0  0  0  0  0
   33.1414   41.7255   43.8182 O   0  0  0  0  0  0  0  0  0  0  0  0
  1  6  2  0  0  0
  1  2  1  0  0  0
  2  3  1  0  0  0
  3  4  2  0  0  0
  4  5  1  0  0  0
  5  6  1  0  0  0
  6  7  1  0  0  0
  7  8  2  0  0  0
  7 10  1  0  0  0
  8  9  1  0  0  0
  8 13  1  0  0  0
  5  9  2  0  0  0
 10 11  1  0  0  0
 11 12  1  0  0  0
 12 16  1  0  0  0
 12 13  1  0  0  0
 13 21  1  0  0  0
 14 17  1  0  0  0
 14 19  1  0  0  0
 14 15  1  0  0  0
 15 16  1  0  0  0
 16 18  2  0  0  0
 21 22  2  0  0  0
 21 26  1  0  0  0
 22 23  1  0  0  0
 23 24  2  0  0  0
 24 29  1  0  0  0
 24 25  1  0  0  0
 25 26  2  0  0  0
 23 27  1  0  0  0
 27 28  1  0  0  0
 28 29  1  0  0  0
 11 19  1  0  0  0
 19 20  2  0  0  0
M  END
> <minimizedAffinity>
-5.84351

$$$$
1XOZ


 29 34  0  0  0  0  0  0  0  0999 V2000
   30.3766   43.6857   45.6117 C   0  0  0  0  0  0  0  0  0  0  0  0
   31.2425   42.6787   45.2175 C   0  0  0  0  0  0  0  0  0  0  0  0
   32.3663   42.8637   44.3680 C   0  0  0  0  0  0  0  0  0  0  0  0
   32.6574   44.1517   43.8638 C   0  0  0  0  0  0  0  0  0  0  0  0
   31.7957   45.1624   44.2547 C   0  0  0  0  0  0  0  0  0  0  0  0
   30.6924   44.9547   45.0956 C   0  0  0  0  0  0  0  0  0  0  0  0
   30.0399   46.2612   45.2641 C   0  0  0  0  0  0  0  0  0  0  0  0
   30.7873   47.1227   44.5291 C   0  0  0  0  0  0  0  0  0  0  0  0
   31.7956   46.4970   43.9499 N   0  0  0  0  0  0  0  0  0  0  0  0
   28.8173   46.6339   46.0543 C   0  0  0  0  0  0  0  0  0  0  0  0
   28.8493   48.1196   46.4362 C   0  0  0  0  0  0  0  0  0  0  0  0
   29.4637   49.0076   45.4434 N   0  0  0  0  0  0  0  0  0  0  0  0
   30.4272   48.5536   44.4554 C   0  0  0  0  0  0  0  0  0  0  0  0
   27.3888   49.9481   47.1217 N   0  0  0  0  0  0  0  0  0  0  0  0
   28.2311   50.8793   46.3713 C   0  0  0  0  0  0  0  0  0  0  0  0
   29.1878   50.3291   45.4108 C   0  0  0  0  0  0  0  0  0  0  0  0
   26.2285   50.4383   47.8428 C   0  0  0  0  0  0  0  0  0  0  0  0
   29.6806   51.1006   44.6275 O   0  0  0  0  0  0  0  0  0  0  0  0
   27.6615   48.6506   47.1745 C   0  0  0  0  0  0  0  0  0  0  0  0
   26.9925   47.8100   47.7974 O   0  0  0  0  0  0  0  0  0  0  0  0
   29.9614   48.7528   42.9709 C   0  0  0  0  0  0  0  0  0  0  0  0
   30.7933   49.3205   42.0197 C   0  0  0  0  0  0  0  0  0  0  0  0
   30.3190   49.4700   40.7147 C   0  0  0  0  0  0  0  0  0  0  0  0
   29.0677   49.0772   40.3574 C   0  0  0  0  0  0  0  0  0  0  0  0
   28.1998   48.5098   41.2623 C   0  0  0  0  0  0  0  0  0  0  0  0
   28.6612   48.3561   42.5513 C   0  0  0  0  0  0  0  0  0  0  0  0
   31.0070   50.0095   39.6568 O   0  0  0  0  0  0  0  0  0  0  0  0
   30.1383   49.6221   38.5514 C   0  0  0  0  0  0  0  0  0  0  0  0
   28.8332   49.3257   39.0365 O   0  0  0  0  0  0  0  0  0  0  0  0
  1  6  2  0  0  0
  1  2  1  0  0  0
  2  3  1  0  0  0
  3  4  2  0  0  0
  4  5  1  0  0  0
  5  6  1  0  0  0
  6  7  1  0  0  0
  7  8  2  0  0  0
  7 10  1  0  0  0
  8  9  1  0  0  0
  8 13  1  0  0  0
  5  9  2  0  0  0
 10 11  1  0  0  0
 11 12  1  0  0  0
 12 16  1  0  0  0
 12 13  1  0  0  0
 13 21  1  0  0  0
 14 17  1  0  0  0
 14 19  1  0  0  0
 14 15  1  0  0  0
 15 16  1  0  0  0
 16 18  2  0  0  0
 21 22  2  0  0  0
 21 26  1  0  0  0
 22 23  1  0  0  0
 23 24  2  0  0  0
 24 29  1  0  0  0
 24 25  1  0  0  0
 25 26  2  0  0  0
 23 27  1  0  0  0
 27 28  1  0  0  0
 28 29  1  0  0  0
 11 19  1  0  0  0
 19 20  2  0  0  0
M  END
> <minimizedAffinity>
-5.69664

$$$$
