1XOZ


 29 34  0  0  0  0  0  0  0  0999 V2000
   40.1341   46.7511   11.1009 C   0  0  0  0  0  0  0  0  0  0  0  0
   40.2811   45.4776   11.6260 C   0  0  0  0  0  0  0  0  0  0  0  0
   41.2676   45.1033   12.5777 C   0  0  0  0  0  0  0  0  0  0  0  0
   42.1872   46.0680   13.0482 C   0  0  0  0  0  0  0  0  0  0  0  0
   42.0448   47.3428   12.5274 C   0  0  0  0  0  0  0  0  0  0  0  0
   41.0616   47.6883   11.5885 C   0  0  0  0  0  0  0  0  0  0  0  0
   41.2469   49.1160   11.2911 C   0  0  0  0  0  0  0  0  0  0  0  0
   42.2992   49.4990   12.0573 C   0  0  0  0  0  0  0  0  0  0  0  0
   42.7586   48.4858   12.7685 N   0  0  0  0  0  0  0  0  0  0  0  0
   40.4837   50.0141   10.3588 C   0  0  0  0  0  0  0  0  0  0  0  0
   40.6036   51.4797   10.7967 C   0  0  0  0  0  0  0  0  0  0  0  0
   41.8917   51.8512   11.3922 N   0  0  0  0  0  0  0  0  0  0  0  0
   42.7855   50.8936   12.0207 C   0  0  0  0  0  0  0  0  0  0  0  0
   40.3777   53.7531    9.9443 N   0  0  0  0  0  0  0  0  0  0  0  0
   41.4776   54.1701   10.8138 C   0  0  0  0  0  0  0  0  0  0  0  0
   42.3139   53.1336   11.4194 C   0  0  0  0  0  0  0  0  0  0  0  0
   39.7241   54.7229    9.0846 C   0  0  0  0  0  0  0  0  0  0  0  0
   43.3537   53.4897   11.9128 O   0  0  0  0  0  0  0  0  0  0  0  0
   39.9438   52.4994    9.9234 C   0  0  0  0  0  0  0  0  0  0  0  0
   39.0126   52.0827    9.2152 O   0  0  0  0  0  0  0  0  0  0  0  0
   44.1922   50.7882   11.3350 C   0  0  0  0  0  0  0  0  0  0  0  0
   45.3556   50.6801   12.0794 C   0  0  0  0  0  0  0  0  0  0  0  0
   46.5772   50.5894   11.4086 C   0  0  0  0  0  0  0  0  0  0  0  0
   46.6528   50.6073   10.0515 C   0  0  0  0  0  0  0  0  0  0  0  0
   45.5292   50.7150    9.2641 C   0  0  0  0  0  0  0  0  0  0  0  0
   44.3198   50.8020    9.9181 C   0  0  0  0  0  0  0  0  0  0  0  0
   47.8162   50.4781   11.9882 O   0  0  0  0  0  0  0  0  0  0  0  0
   48.6219   50.1275   10.8243 C   0  0  0  0  0  0  0  0  0  0  0  0
   47.9468   50.5081    9.6303 O   0  0  0  0  0  0  0  0  0  0  0  0
  1  6  2  0  0  0
  1  2  1  0  0  0
  2  3  1  0  0  0
  3  4  2  0  0  0
  4  5  1  0  0  0
  5  6  1  0  0  0
  6  7  1  0  0  0
  7  8  2  0  0  0
  7 10  1  0  0  0
  8  9  1  0  0  0
  8 13  1  0  0  0
  5  9  2  0  0  0
 10 11  1  0  0  0
 11 12  1  0  0  0
 12 16  1  0  0  0
 12 13  1  0  0  0
 13 21  1  0  0  0
 14 17  1  0  0  0
 14 19  1  0  0  0
 14 15  1  0  0  0
 15 16  1  0  0  0
 16 18  2  0  0  0
 21 22  2  0  0  0
 21 26  1  0  0  0
 22 23  1  0  0  0
 23 24  2  0  0  0
 24 29  1  0  0  0
 24 25  1  0  0  0
 25 26  2  0  0  0
 23 27  1  0  0  0
 27 28  1  0  0  0
 28 29  1  0  0  0
 11 19  1  0  0  0
 19 20  2  0  0  0
M  END
> <minimizedAffinity>
-9.18148

$$$$
1XOZ


 29 34  0  0  0  0  0  0  0  0999 V2000
   40.0855   46.6309   11.2211 C   0  0  0  0  0  0  0  0  0  0  0  0
   40.3055   45.3654   11.7402 C   0  0  0  0  0  0  0  0  0  0  0  0
   41.3642   45.0261   12.6250 C   0  0  0  0  0  0  0  0  0  0  0  0
   42.2841   46.0204   13.0287 C   0  0  0  0  0  0  0  0  0  0  0  0
   42.0691   47.2873   12.5135 C   0  0  0  0  0  0  0  0  0  0  0  0
   41.0153   47.5980   11.6415 C   0  0  0  0  0  0  0  0  0  0  0  0
   41.1375   49.0287   11.3266 C   0  0  0  0  0  0  0  0  0  0  0  0
   42.2269   49.4472   12.0189 C   0  0  0  0  0  0  0  0  0  0  0  0
   42.7631   48.4522   12.7016 N   0  0  0  0  0  0  0  0  0  0  0  0
   40.2870   49.8982   10.4442 C   0  0  0  0  0  0  0  0  0  0  0  0
   40.3922   51.3694   10.8672 C   0  0  0  0  0  0  0  0  0  0  0  0
   41.7057   51.7823   11.3733 N   0  0  0  0  0  0  0  0  0  0  0  0
   42.6678   50.8553   11.9441 C   0  0  0  0  0  0  0  0  0  0  0  0
   40.0418   53.6300   10.0228 N   0  0  0  0  0  0  0  0  0  0  0  0
   41.1846   54.0845   10.8148 C   0  0  0  0  0  0  0  0  0  0  0  0
   42.0902   53.0767   11.3669 C   0  0  0  0  0  0  0  0  0  0  0  0
   39.3034   54.5749    9.2052 C   0  0  0  0  0  0  0  0  0  0  0  0
   43.1497   53.4663   11.7879 O   0  0  0  0  0  0  0  0  0  0  0  0
   39.6451   52.3638   10.0361 C   0  0  0  0  0  0  0  0  0  0  0  0
   38.6814   51.9157    9.3938 O   0  0  0  0  0  0  0  0  0  0  0  0
   44.0279   50.7873   11.1659 C   0  0  0  0  0  0  0  0  0  0  0  0
   44.0692   50.6937    9.7843 C   0  0  0  0  0  0  0  0  0  0  0  0
   45.3126   50.6371    9.1509 C   0  0  0  0  0  0  0  0  0  0  0  0
   46.4765   50.6687    9.8525 C   0  0  0  0  0  0  0  0  0  0  0  0
   46.4932   50.7588   11.2256 C   0  0  0  0  0  0  0  0  0  0  0  0
   45.2706   50.8180   11.8580 C   0  0  0  0  0  0  0  0  0  0  0  0
   45.5326   50.5431    7.7996 O   0  0  0  0  0  0  0  0  0  0  0  0
   46.9623   50.8252    7.7443 C   0  0  0  0  0  0  0  0  0  0  0  0
   47.5544   50.5991    9.0189 O   0  0  0  0  0  0  0  0  0  0  0  0
  1  6  2  0  0  0
  1  2  1  0  0  0
  2  3  1  0  0  0
  3  4  2  0  0  0
  4  5  1  0  0  0
  5  6  1  0  0  0
  6  7  1  0  0  0
  7  8  2  0  0  0
  7 10  1  0  0  0
  8  9  1  0  0  0
  8 13  1  0  0  0
  5  9  2  0  0  0
 10 11  1  0  0  0
 11 12  1  0  0  0
 12 16  1  0  0  0
 12 13  1  0  0  0
 13 21  1  0  0  0
 14 17  1  0  0  0
 14 19  1  0  0  0
 14 15  1  0  0  0
 15 16  1  0  0  0
 16 18  2  0  0  0
 21 22  2  0  0  0
 21 26  1  0  0  0
 22 23  1  0  0  0
 23 24  2  0  0  0
 24 29  1  0  0  0
 24 25  1  0  0  0
 25 26  2  0  0  0
 23 27  1  0  0  0
 27 28  1  0  0  0
 28 29  1  0  0  0
 11 19  1  0  0  0
 19 20  2  0  0  0
M  END
> <minimizedAffinity>
-9.16130

$$$$
1XOZ


 29 34  0  0  0  0  0  0  0  0999 V2000
   39.6083   54.4535    8.2076 C   0  0  0  0  0  0  0  0  0  0  0  0
   39.6468   55.7261    7.6613 C   0  0  0  0  0  0  0  0  0  0  0  0
   40.6347   56.7040    7.9558 C   0  0  0  0  0  0  0  0  0  0  0  0
   41.6701   56.3993    8.8684 C   0  0  0  0  0  0  0  0  0  0  0  0
   41.6372   55.1287    9.4173 C   0  0  0  0  0  0  0  0  0  0  0  0
   40.6509   54.1798    9.1100 C   0  0  0  0  0  0  0  0  0  0  0  0
   40.9662   52.9765    9.8933 C   0  0  0  0  0  0  0  0  0  0  0  0
   42.0874   53.2951   10.5878 C   0  0  0  0  0  0  0  0  0  0  0  0
   42.4761   54.5276   10.3167 N   0  0  0  0  0  0  0  0  0  0  0  0
   40.2523   51.6560    9.9621 C   0  0  0  0  0  0  0  0  0  0  0  0
   41.2128   50.5410   10.3961 C   0  0  0  0  0  0  0  0  0  0  0  0
   42.2467   50.9443   11.3554 N   0  0  0  0  0  0  0  0  0  0  0  0
   42.7077   52.3142   11.5020 C   0  0  0  0  0  0  0  0  0  0  0  0
   41.2297   48.3039   11.3663 N   0  0  0  0  0  0  0  0  0  0  0  0
   42.4685   48.6368   12.0693 C   0  0  0  0  0  0  0  0  0  0  0  0
   42.8637   50.0432   12.1497 C   0  0  0  0  0  0  0  0  0  0  0  0
   40.6379   46.9877   11.5218 C   0  0  0  0  0  0  0  0  0  0  0  0
   43.7302   50.3230   12.9386 O   0  0  0  0  0  0  0  0  0  0  0  0
   40.6254   49.1762   10.5697 C   0  0  0  0  0  0  0  0  0  0  0  0
   39.5780   48.9548    9.9404 O   0  0  0  0  0  0  0  0  0  0  0  0
   42.4675   52.9193   12.9290 C   0  0  0  0  0  0  0  0  0  0  0  0
   41.2366   52.8271   13.5582 C   0  0  0  0  0  0  0  0  0  0  0  0
   41.0875   53.3863   14.8292 C   0  0  0  0  0  0  0  0  0  0  0  0
   42.1132   54.0175   15.4594 C   0  0  0  0  0  0  0  0  0  0  0  0
   43.3553   54.1395   14.8796 C   0  0  0  0  0  0  0  0  0  0  0  0
   43.5116   53.5879   13.6268 C   0  0  0  0  0  0  0  0  0  0  0  0
   39.9443   53.3848   15.5886 O   0  0  0  0  0  0  0  0  0  0  0  0
   40.4796   53.8214   16.8728 C   0  0  0  0  0  0  0  0  0  0  0  0
   41.7271   54.4804   16.6835 O   0  0  0  0  0  0  0  0  0  0  0  0
  1  6  2  0  0  0
  1  2  1  0  0  0
  2  3  1  0  0  0
  3  4  2  0  0  0
  4  5  1  0  0  0
  5  6  1  0  0  0
  6  7  1  0  0  0
  7  8  2  0  0  0
  7 10  1  0  0  0
  8  9  1  0  0  0
  8 13  1  0  0  0
  5  9  2  0  0  0
 10 11  1  0  0  0
 11 12  1  0  0  0
 12 16  1  0  0  0
 12 13  1  0  0  0
 13 21  1  0  0  0
 14 17  1  0  0  0
 14 19  1  0  0  0
 14 15  1  0  0  0
 15 16  1  0  0  0
 16 18  2  0  0  0
 21 22  2  0  0  0
 21 26  1  0  0  0
 22 23  1  0  0  0
 23 24  2  0  0  0
 24 29  1  0  0  0
 24 25  1  0  0  0
 25 26  2  0  0  0
 23 27  1  0  0  0
 27 28  1  0  0  0
 28 29  1  0  0  0
 11 19  1  0  0  0
 19 20  2  0  0  0
M  END
> <minimizedAffinity>
-8.63440

$$$$
1XOZ


 29 34  0  0  0  0  0  0  0  0999 V2000
   42.0658   46.9974   13.1507 C   0  0  0  0  0  0  0  0  0  0  0  0
   41.0846   46.0225   13.0731 C   0  0  0  0  0  0  0  0  0  0  0  0
   40.1046   45.9401   12.0475 C   0  0  0  0  0  0  0  0  0  0  0  0
   40.0920   46.9034   11.0132 C   0  0  0  0  0  0  0  0  0  0  0  0
   41.0706   47.8800   11.0851 C   0  0  0  0  0  0  0  0  0  0  0  0
   42.0284   47.9398   12.1082 C   0  0  0  0  0  0  0  0  0  0  0  0
   42.8717   49.1107   11.8271 C   0  0  0  0  0  0  0  0  0  0  0  0
   42.3629   49.6425   10.6872 C   0  0  0  0  0  0  0  0  0  0  0  0
   41.3311   48.9392   10.2579 N   0  0  0  0  0  0  0  0  0  0  0  0
   44.0473   49.6574   12.5869 C   0  0  0  0  0  0  0  0  0  0  0  0
   44.9606   50.4724   11.6619 C   0  0  0  0  0  0  0  0  0  0  0  0
   44.2728   51.2193   10.6032 N   0  0  0  0  0  0  0  0  0  0  0  0
   42.9628   50.8543   10.0919 C   0  0  0  0  0  0  0  0  0  0  0  0
   46.6852   52.1956   11.7138 N   0  0  0  0  0  0  0  0  0  0  0  0
   46.1644   52.7305   10.4558 C   0  0  0  0  0  0  0  0  0  0  0  0
   44.8424   52.2902   10.0097 C   0  0  0  0  0  0  0  0  0  0  0  0
   47.8295   52.8216   12.3503 C   0  0  0  0  0  0  0  0  0  0  0  0
   44.3255   52.9235    9.1247 O   0  0  0  0  0  0  0  0  0  0  0  0
   46.1437   51.1331   12.2956 C   0  0  0  0  0  0  0  0  0  0  0  0
   46.5410   50.6264   13.3575 O   0  0  0  0  0  0  0  0  0  0  0  0
   41.8681   51.9593   10.2939 C   0  0  0  0  0  0  0  0  0  0  0  0
   41.1781   52.5013    9.2217 C   0  0  0  0  0  0  0  0  0  0  0  0
   40.2150   53.4820    9.4684 C   0  0  0  0  0  0  0  0  0  0  0  0
   39.9413   53.9175   10.7266 C   0  0  0  0  0  0  0  0  0  0  0  0
   40.5981   53.4151   11.8267 C   0  0  0  0  0  0  0  0  0  0  0  0
   41.5478   52.4450   11.5922 C   0  0  0  0  0  0  0  0  0  0  0  0
   39.4454   54.1199    8.5279 O   0  0  0  0  0  0  0  0  0  0  0  0
   38.4646   54.7725    9.3875 C   0  0  0  0  0  0  0  0  0  0  0  0
   38.9696   54.8753   10.7144 O   0  0  0  0  0  0  0  0  0  0  0  0
  1  6  2  0  0  0
  1  2  1  0  0  0
  2  3  1  0  0  0
  3  4  2  0  0  0
  4  5  1  0  0  0
  5  6  1  0  0  0
  6  7  1  0  0  0
  7  8  2  0  0  0
  7 10  1  0  0  0
  8  9  1  0  0  0
  8 13  1  0  0  0
  5  9  2  0  0  0
 10 11  1  0  0  0
 11 12  1  0  0  0
 12 16  1  0  0  0
 12 13  1  0  0  0
 13 21  1  0  0  0
 14 17  1  0  0  0
 14 19  1  0  0  0
 14 15  1  0  0  0
 15 16  1  0  0  0
 16 18  2  0  0  0
 21 22  2  0  0  0
 21 26  1  0  0  0
 22 23  1  0  0  0
 23 24  2  0  0  0
 24 29  1  0  0  0
 24 25  1  0  0  0
 25 26  2  0  0  0
 23 27  1  0  0  0
 27 28  1  0  0  0
 28 29  1  0  0  0
 11 19  1  0  0  0
 19 20  2  0  0  0
M  END
> <minimizedAffinity>
-8.60109

$$$$
1XOZ


 29 34  0  0  0  0  0  0  0  0999 V2000
   42.4541   55.2594   15.4686 C   0  0  0  0  0  0  0  0  0  0  0  0
   41.8089   55.2173   16.6938 C   0  0  0  0  0  0  0  0  0  0  0  0
   41.5209   54.0284   17.4167 C   0  0  0  0  0  0  0  0  0  0  0  0
   41.9005   52.7759   16.8827 C   0  0  0  0  0  0  0  0  0  0  0  0
   42.5462   52.8116   15.6586 C   0  0  0  0  0  0  0  0  0  0  0  0
   42.8201   53.9992   14.9641 C   0  0  0  0  0  0  0  0  0  0  0  0
   43.5044   53.6120   13.7220 C   0  0  0  0  0  0  0  0  0  0  0  0
   43.5826   52.2583   13.7733 C   0  0  0  0  0  0  0  0  0  0  0  0
   43.0356   51.7957   14.8825 N   0  0  0  0  0  0  0  0  0  0  0  0
   44.0259   54.4666   12.6014 C   0  0  0  0  0  0  0  0  0  0  0  0
   45.1532   53.7475   11.8490 C   0  0  0  0  0  0  0  0  0  0  0  0
   45.0068   52.2915   11.7456 N   0  0  0  0  0  0  0  0  0  0  0  0
   44.2171   51.5015   12.6745 C   0  0  0  0  0  0  0  0  0  0  0  0
   46.3293   53.7494    9.7129 N   0  0  0  0  0  0  0  0  0  0  0  0
   46.4578   52.2950    9.8018 C   0  0  0  0  0  0  0  0  0  0  0  0
   45.6354   51.5849   10.7817 C   0  0  0  0  0  0  0  0  0  0  0  0
   46.8761   54.4580    8.5703 C   0  0  0  0  0  0  0  0  0  0  0  0
   45.5608   50.3879   10.6674 O   0  0  0  0  0  0  0  0  0  0  0  0
   45.7292   54.4546   10.6632 C   0  0  0  0  0  0  0  0  0  0  0  0
   45.5931   55.6889   10.6517 O   0  0  0  0  0  0  0  0  0  0  0  0
   43.0256   50.7317   12.0052 C   0  0  0  0  0  0  0  0  0  0  0  0
   42.8465   49.3704   12.1900 C   0  0  0  0  0  0  0  0  0  0  0  0
   41.7653   48.7436   11.5666 C   0  0  0  0  0  0  0  0  0  0  0  0
   40.8911   49.4315   10.7854 C   0  0  0  0  0  0  0  0  0  0  0  0
   41.0233   50.7838   10.5665 C   0  0  0  0  0  0  0  0  0  0  0  0
   42.0857   51.4103   11.1804 C   0  0  0  0  0  0  0  0  0  0  0  0
   41.4438   47.4116   11.6431 O   0  0  0  0  0  0  0  0  0  0  0  0
   40.1051   47.4293   11.0650 C   0  0  0  0  0  0  0  0  0  0  0  0
   39.9246   48.6075   10.2868 O   0  0  0  0  0  0  0  0  0  0  0  0
  1  6  2  0  0  0
  1  2  1  0  0  0
  2  3  1  0  0  0
  3  4  2  0  0  0
  4  5  1  0  0  0
  5  6  1  0  0  0
  6  7  1  0  0  0
  7  8  2  0  0  0
  7 10  1  0  0  0
  8  9  1  0  0  0
  8 13  1  0  0  0
  5  9  2  0  0  0
 10 11  1  0  0  0
 11 12  1  0  0  0
 12 16  1  0  0  0
 12 13  1  0  0  0
 13 21  1  0  0  0
 14 17  1  0  0  0
 14 19  1  0  0  0
 14 15  1  0  0  0
 15 16  1  0  0  0
 16 18  2  0  0  0
 21 22  2  0  0  0
 21 26  1  0  0  0
 22 23  1  0  0  0
 23 24  2  0  0  0
 24 29  1  0  0  0
 24 25  1  0  0  0
 25 26  2  0  0  0
 23 27  1  0  0  0
 27 28  1  0  0  0
 28 29  1  0  0  0
 11 19  1  0  0  0
 19 20  2  0  0  0
M  END
> <minimizedAffinity>
-8.58349

$$$$
