1XOZ


 29 34  0  0  0  0  0  0  0  0999 V2000
   38.8778   27.1287   26.6040 C   0  0  0  0  0  0  0  0  0  0  0  0
   38.7451   27.1943   25.2266 C   0  0  0  0  0  0  0  0  0  0  0  0
   38.3060   28.3395   24.5091 C   0  0  0  0  0  0  0  0  0  0  0  0
   37.9675   29.5180   25.2123 C   0  0  0  0  0  0  0  0  0  0  0  0
   38.0985   29.4586   26.5893 C   0  0  0  0  0  0  0  0  0  0  0  0
   38.5351   28.3156   27.2751 C   0  0  0  0  0  0  0  0  0  0  0  0
   38.5329   28.6563   28.7051 C   0  0  0  0  0  0  0  0  0  0  0  0
   38.1062   29.9433   28.7572 C   0  0  0  0  0  0  0  0  0  0  0  0
   37.8574   30.4073   27.5462 N   0  0  0  0  0  0  0  0  0  0  0  0
   38.9041   27.8194   29.8967 C   0  0  0  0  0  0  0  0  0  0  0  0
   39.3290   28.7076   31.0734 C   0  0  0  0  0  0  0  0  0  0  0  0
   38.6166   29.9854   31.1818 N   0  0  0  0  0  0  0  0  0  0  0  0
   37.9725   30.6373   30.0545 C   0  0  0  0  0  0  0  0  0  0  0  0
   39.5769   28.6760   33.4991 N   0  0  0  0  0  0  0  0  0  0  0  0
   39.1685   30.0800   33.5419 C   0  0  0  0  0  0  0  0  0  0  0  0
   38.5448   30.6573   32.3510 C   0  0  0  0  0  0  0  0  0  0  0  0
   39.9067   27.9781   34.7282 C   0  0  0  0  0  0  0  0  0  0  0  0
   37.9878   31.7171   32.4852 O   0  0  0  0  0  0  0  0  0  0  0  0
   39.6678   28.0121   32.3538 C   0  0  0  0  0  0  0  0  0  0  0  0
   40.0140   26.8242   32.2481 O   0  0  0  0  0  0  0  0  0  0  0  0
   36.4251   30.8280   30.2263 C   0  0  0  0  0  0  0  0  0  0  0  0
   35.6937   31.6324   29.3677 C   0  0  0  0  0  0  0  0  0  0  0  0
   34.3185   31.7606   29.5742 C   0  0  0  0  0  0  0  0  0  0  0  0
   33.6839   31.1216   30.5924 C   0  0  0  0  0  0  0  0  0  0  0  0
   34.3621   30.3125   31.4753 C   0  0  0  0  0  0  0  0  0  0  0  0
   35.7188   30.1785   31.2767 C   0  0  0  0  0  0  0  0  0  0  0  0
   33.4505   32.5125   28.8227 O   0  0  0  0  0  0  0  0  0  0  0  0
   32.1725   32.0163   29.3197 C   0  0  0  0  0  0  0  0  0  0  0  0
   32.3484   31.4011   30.5912 O   0  0  0  0  0  0  0  0  0  0  0  0
  1  6  2  0  0  0
  1  2  1  0  0  0
  2  3  1  0  0  0
  3  4  2  0  0  0
  4  5  1  0  0  0
  5  6  1  0  0  0
  6  7  1  0  0  0
  7  8  2  0  0  0
  7 10  1  0  0  0
  8  9  1  0  0  0
  8 13  1  0  0  0
  5  9  2  0  0  0
 10 11  1  0  0  0
 11 12  1  0  0  0
 12 16  1  0  0  0
 12 13  1  0  0  0
 13 21  1  0  0  0
 14 17  1  0  0  0
 14 19  1  0  0  0
 14 15  1  0  0  0
 15 16  1  0  0  0
 16 18  2  0  0  0
 21 22  2  0  0  0
 21 26  1  0  0  0
 22 23  1  0  0  0
 23 24  2  0  0  0
 24 29  1  0  0  0
 24 25  1  0  0  0
 25 26  2  0  0  0
 23 27  1  0  0  0
 27 28  1  0  0  0
 28 29  1  0  0  0
 11 19  1  0  0  0
 19 20  2  0  0  0
M  END
> <minimizedAffinity>
13.00080

$$$$
