1XOZ


 29 34  0  0  0  0  0  0  0  0999 V2000
   34.8444   62.0351   11.4669 C   0  0  0  0  0  0  0  0  0  0  0  0
   33.8414   61.7661   10.5500 C   0  0  0  0  0  0  0  0  0  0  0  0
   32.4550   61.9726   10.7829 C   0  0  0  0  0  0  0  0  0  0  0  0
   32.0237   62.4859   12.0272 C   0  0  0  0  0  0  0  0  0  0  0  0
   33.0217   62.7572   12.9475 C   0  0  0  0  0  0  0  0  0  0  0  0
   34.3849   62.5453   12.6936 C   0  0  0  0  0  0  0  0  0  0  0  0
   35.1070   62.9492   13.9088 C   0  0  0  0  0  0  0  0  0  0  0  0
   34.1414   63.3599   14.7690 C   0  0  0  0  0  0  0  0  0  0  0  0
   32.9447   63.2526   14.2213 N   0  0  0  0  0  0  0  0  0  0  0  0
   36.5802   62.9358   14.2047 C   0  0  0  0  0  0  0  0  0  0  0  0
   36.9255   63.9624   15.2914 C   0  0  0  0  0  0  0  0  0  0  0  0
   35.9017   64.1468   16.3257 N   0  0  0  0  0  0  0  0  0  0  0  0
   34.4959   63.8435   16.1193 C   0  0  0  0  0  0  0  0  0  0  0  0
   38.6416   64.4963   16.9394 N   0  0  0  0  0  0  0  0  0  0  0  0
   37.5993   64.9880   17.8403 C   0  0  0  0  0  0  0  0  0  0  0  0
   36.2079   64.6486   17.5414 C   0  0  0  0  0  0  0  0  0  0  0  0
   40.0334   64.5357   17.3495 C   0  0  0  0  0  0  0  0  0  0  0  0
   35.4001   64.8352   18.4156 O   0  0  0  0  0  0  0  0  0  0  0  0
   38.3527   64.0179   15.7360 C   0  0  0  0  0  0  0  0  0  0  0  0
   39.1889   63.5923   14.9224 O   0  0  0  0  0  0  0  0  0  0  0  0
   33.9338   62.7378   17.0792 C   0  0  0  0  0  0  0  0  0  0  0  0
   34.5689   61.5157   17.2286 C   0  0  0  0  0  0  0  0  0  0  0  0
   34.0177   60.5733   18.0995 C   0  0  0  0  0  0  0  0  0  0  0  0
   32.8786   60.8228   18.7980 C   0  0  0  0  0  0  0  0  0  0  0  0
   32.2063   62.0185   18.6856 C   0  0  0  0  0  0  0  0  0  0  0  0
   32.7453   62.9548   17.8306 C   0  0  0  0  0  0  0  0  0  0  0  0
   34.5151   59.3217   18.3631 O   0  0  0  0  0  0  0  0  0  0  0  0
   33.7146   58.9588   19.5267 C   0  0  0  0  0  0  0  0  0  0  0  0
   32.5366   59.7563   19.5772 O   0  0  0  0  0  0  0  0  0  0  0  0
  1  6  2  0  0  0
  1  2  1  0  0  0
  2  3  1  0  0  0
  3  4  2  0  0  0
  4  5  1  0  0  0
  5  6  1  0  0  0
  6  7  1  0  0  0
  7  8  2  0  0  0
  7 10  1  0  0  0
  8  9  1  0  0  0
  8 13  1  0  0  0
  5  9  2  0  0  0
 10 11  1  0  0  0
 11 12  1  0  0  0
 12 16  1  0  0  0
 12 13  1  0  0  0
 13 21  1  0  0  0
 14 17  1  0  0  0
 14 19  1  0  0  0
 14 15  1  0  0  0
 15 16  1  0  0  0
 16 18  2  0  0  0
 21 22  2  0  0  0
 21 26  1  0  0  0
 22 23  1  0  0  0
 23 24  2  0  0  0
 24 29  1  0  0  0
 24 25  1  0  0  0
 25 26  2  0  0  0
 23 27  1  0  0  0
 27 28  1  0  0  0
 28 29  1  0  0  0
 11 19  1  0  0  0
 19 20  2  0  0  0
M  END
> <minimizedAffinity>
-7.00577

$$$$
1XOZ


 29 34  0  0  0  0  0  0  0  0999 V2000
   39.3848   58.6720   13.3531 C   0  0  0  0  0  0  0  0  0  0  0  0
   38.9379   58.1576   12.1469 C   0  0  0  0  0  0  0  0  0  0  0  0
   37.8058   58.6349   11.4329 C   0  0  0  0  0  0  0  0  0  0  0  0
   37.0509   59.7092   11.9563 C   0  0  0  0  0  0  0  0  0  0  0  0
   37.4930   60.2277   13.1614 C   0  0  0  0  0  0  0  0  0  0  0  0
   38.6149   59.7394   13.8473 C   0  0  0  0  0  0  0  0  0  0  0  0
   38.7449   60.5460   15.0694 C   0  0  0  0  0  0  0  0  0  0  0  0
   37.7163   61.4293   15.0164 C   0  0  0  0  0  0  0  0  0  0  0  0
   36.9971   61.2510   13.9235 N   0  0  0  0  0  0  0  0  0  0  0  0
   39.7603   60.4661   16.1744 C   0  0  0  0  0  0  0  0  0  0  0  0
   39.8869   61.8150   16.8944 C   0  0  0  0  0  0  0  0  0  0  0  0
   38.6434   62.5856   17.0026 N   0  0  0  0  0  0  0  0  0  0  0  0
   37.5199   62.4176   16.0969 C   0  0  0  0  0  0  0  0  0  0  0  0
   40.6404   62.7958   18.9960 N   0  0  0  0  0  0  0  0  0  0  0  0
   39.5616   63.7794   18.9040 C   0  0  0  0  0  0  0  0  0  0  0  0
   38.4809   63.5357   17.9483 C   0  0  0  0  0  0  0  0  0  0  0  0
   41.5555   62.8252   20.1222 C   0  0  0  0  0  0  0  0  0  0  0  0
   37.4868   64.2062   18.0651 O   0  0  0  0  0  0  0  0  0  0  0  0
   40.8193   61.8694   18.0630 C   0  0  0  0  0  0  0  0  0  0  0  0
   41.7173   61.0118   18.0779 O   0  0  0  0  0  0  0  0  0  0  0  0
   36.1967   61.9543   16.8003 C   0  0  0  0  0  0  0  0  0  0  0  0
   36.1256   60.7587   17.4966 C   0  0  0  0  0  0  0  0  0  0  0  0
   34.9178   60.4033   18.1010 C   0  0  0  0  0  0  0  0  0  0  0  0
   33.8160   61.1953   18.0213 C   0  0  0  0  0  0  0  0  0  0  0  0
   33.8306   62.3915   17.3409 C   0  0  0  0  0  0  0  0  0  0  0  0
   35.0192   62.7509   16.7441 C   0  0  0  0  0  0  0  0  0  0  0  0
   34.6757   59.2619   18.8236 O   0  0  0  0  0  0  0  0  0  0  0  0
   33.3904   59.5976   19.4252 C   0  0  0  0  0  0  0  0  0  0  0  0
   32.7620   60.6390   18.6856 O   0  0  0  0  0  0  0  0  0  0  0  0
  1  6  2  0  0  0
  1  2  1  0  0  0
  2  3  1  0  0  0
  3  4  2  0  0  0
  4  5  1  0  0  0
  5  6  1  0  0  0
  6  7  1  0  0  0
  7  8  2  0  0  0
  7 10  1  0  0  0
  8  9  1  0  0  0
  8 13  1  0  0  0
  5  9  2  0  0  0
 10 11  1  0  0  0
 11 12  1  0  0  0
 12 16  1  0  0  0
 12 13  1  0  0  0
 13 21  1  0  0  0
 14 17  1  0  0  0
 14 19  1  0  0  0
 14 15  1  0  0  0
 15 16  1  0  0  0
 16 18  2  0  0  0
 21 22  2  0  0  0
 21 26  1  0  0  0
 22 23  1  0  0  0
 23 24  2  0  0  0
 24 29  1  0  0  0
 24 25  1  0  0  0
 25 26  2  0  0  0
 23 27  1  0  0  0
 27 28  1  0  0  0
 28 29  1  0  0  0
 11 19  1  0  0  0
 19 20  2  0  0  0
M  END
> <minimizedAffinity>
-6.78297

$$$$
1XOZ


 29 34  0  0  0  0  0  0  0  0999 V2000
   38.8634   60.4763   14.6125 C   0  0  0  0  0  0  0  0  0  0  0  0
   39.9506   60.7862   13.8117 C   0  0  0  0  0  0  0  0  0  0  0  0
   40.1224   62.0155   13.1201 C   0  0  0  0  0  0  0  0  0  0  0  0
   39.1359   63.0221   13.2273 C   0  0  0  0  0  0  0  0  0  0  0  0
   38.0472   62.7184   14.0268 C   0  0  0  0  0  0  0  0  0  0  0  0
   37.9005   61.4968   14.7005 C   0  0  0  0  0  0  0  0  0  0  0  0
   36.6249   61.5679   15.4277 C   0  0  0  0  0  0  0  0  0  0  0  0
   36.1249   62.7955   15.1375 C   0  0  0  0  0  0  0  0  0  0  0  0
   36.9380   63.4587   14.3358 N   0  0  0  0  0  0  0  0  0  0  0  0
   35.9597   60.5497   16.3103 C   0  0  0  0  0  0  0  0  0  0  0  0
   35.0077   61.2300   17.3028 C   0  0  0  0  0  0  0  0  0  0  0  0
   34.3195   62.4211   16.7932 N   0  0  0  0  0  0  0  0  0  0  0  0
   34.8293   63.2297   15.6991 C   0  0  0  0  0  0  0  0  0  0  0  0
   33.0846   60.7676   18.7289 N   0  0  0  0  0  0  0  0  0  0  0  0
   32.5794   62.1127   18.4547 C   0  0  0  0  0  0  0  0  0  0  0  0
   33.1674   62.8609   17.3434 C   0  0  0  0  0  0  0  0  0  0  0  0
   32.3407   59.8764   19.6002 C   0  0  0  0  0  0  0  0  0  0  0  0
   32.5759   63.8428   16.9723 O   0  0  0  0  0  0  0  0  0  0  0  0
   34.2245   60.3324   18.2075 C   0  0  0  0  0  0  0  0  0  0  0  0
   34.7110   59.2070   18.4054 O   0  0  0  0  0  0  0  0  0  0  0  0
   33.8770   63.2926   14.4544 C   0  0  0  0  0  0  0  0  0  0  0  0
   33.3232   62.1472   13.9061 C   0  0  0  0  0  0  0  0  0  0  0  0
   32.4826   62.2708   12.7977 C   0  0  0  0  0  0  0  0  0  0  0  0
   32.1983   63.4797   12.2450 C   0  0  0  0  0  0  0  0  0  0  0  0
   32.7228   64.6484   12.7480 C   0  0  0  0  0  0  0  0  0  0  0  0
   33.5508   64.5354   13.8433 C   0  0  0  0  0  0  0  0  0  0  0  0
   31.8551   61.2456   12.1355 O   0  0  0  0  0  0  0  0  0  0  0  0
   30.9207   61.9988   11.3071 C   0  0  0  0  0  0  0  0  0  0  0  0
   31.3606   63.3463   11.1763 O   0  0  0  0  0  0  0  0  0  0  0  0
  1  6  2  0  0  0
  1  2  1  0  0  0
  2  3  1  0  0  0
  3  4  2  0  0  0
  4  5  1  0  0  0
  5  6  1  0  0  0
  6  7  1  0  0  0
  7  8  2  0  0  0
  7 10  1  0  0  0
  8  9  1  0  0  0
  8 13  1  0  0  0
  5  9  2  0  0  0
 10 11  1  0  0  0
 11 12  1  0  0  0
 12 16  1  0  0  0
 12 13  1  0  0  0
 13 21  1  0  0  0
 14 17  1  0  0  0
 14 19  1  0  0  0
 14 15  1  0  0  0
 15 16  1  0  0  0
 16 18  2  0  0  0
 21 22  2  0  0  0
 21 26  1  0  0  0
 22 23  1  0  0  0
 23 24  2  0  0  0
 24 29  1  0  0  0
 24 25  1  0  0  0
 25 26  2  0  0  0
 23 27  1  0  0  0
 27 28  1  0  0  0
 28 29  1  0  0  0
 11 19  1  0  0  0
 19 20  2  0  0  0
M  END
> <minimizedAffinity>
-6.75123

$$$$
1XOZ


 29 34  0  0  0  0  0  0  0  0999 V2000
   40.2190   64.6169   17.0729 C   0  0  0  0  0  0  0  0  0  0  0  0
   41.0953   64.5622   18.1445 C   0  0  0  0  0  0  0  0  0  0  0  0
   41.1811   63.4840   19.0660 C   0  0  0  0  0  0  0  0  0  0  0  0
   40.3276   62.3672   18.9172 C   0  0  0  0  0  0  0  0  0  0  0  0
   39.4499   62.4159   17.8477 C   0  0  0  0  0  0  0  0  0  0  0  0
   39.3845   63.4921   16.9504 C   0  0  0  0  0  0  0  0  0  0  0  0
   38.3357   63.1631   15.9743 C   0  0  0  0  0  0  0  0  0  0  0  0
   37.8709   61.9471   16.3571 C   0  0  0  0  0  0  0  0  0  0  0  0
   38.5079   61.5148   17.4299 N   0  0  0  0  0  0  0  0  0  0  0  0
   37.8356   63.9479   14.7945 C   0  0  0  0  0  0  0  0  0  0  0  0
   37.2094   63.0166   13.7483 C   0  0  0  0  0  0  0  0  0  0  0  0
   36.5059   61.8493   14.2911 N   0  0  0  0  0  0  0  0  0  0  0  0
   36.7885   61.2855   15.5999 C   0  0  0  0  0  0  0  0  0  0  0  0
   35.6678   63.0277   11.8589 N   0  0  0  0  0  0  0  0  0  0  0  0
   35.2104   61.6933   12.2464 C   0  0  0  0  0  0  0  0  0  0  0  0
   35.5599   61.2003   13.5788 C   0  0  0  0  0  0  0  0  0  0  0  0
   35.0981   63.6808   10.6946 C   0  0  0  0  0  0  0  0  0  0  0  0
   34.9687   60.2277   13.9739 O   0  0  0  0  0  0  0  0  0  0  0  0
   36.6094   63.6662   12.5417 C   0  0  0  0  0  0  0  0  0  0  0  0
   37.0461   64.7948   12.2625 O   0  0  0  0  0  0  0  0  0  0  0  0
   35.5665   61.3100   16.5829 C   0  0  0  0  0  0  0  0  0  0  0  0
   35.2448   60.2146   17.3676 C   0  0  0  0  0  0  0  0  0  0  0  0
   34.1442   60.3002   18.2231 C   0  0  0  0  0  0  0  0  0  0  0  0
   33.3836   61.4239   18.3023 C   0  0  0  0  0  0  0  0  0  0  0  0
   33.6570   62.5395   17.5441 C   0  0  0  0  0  0  0  0  0  0  0  0
   34.7430   62.4643   16.6997 C   0  0  0  0  0  0  0  0  0  0  0  0
   33.6895   59.3148   19.0631 O   0  0  0  0  0  0  0  0  0  0  0  0
   32.7502   60.0756   19.8789 C   0  0  0  0  0  0  0  0  0  0  0  0
   32.3690   61.2680   19.2011 O   0  0  0  0  0  0  0  0  0  0  0  0
  1  6  2  0  0  0
  1  2  1  0  0  0
  2  3  1  0  0  0
  3  4  2  0  0  0
  4  5  1  0  0  0
  5  6  1  0  0  0
  6  7  1  0  0  0
  7  8  2  0  0  0
  7 10  1  0  0  0
  8  9  1  0  0  0
  8 13  1  0  0  0
  5  9  2  0  0  0
 10 11  1  0  0  0
 11 12  1  0  0  0
 12 16  1  0  0  0
 12 13  1  0  0  0
 13 21  1  0  0  0
 14 17  1  0  0  0
 14 19  1  0  0  0
 14 15  1  0  0  0
 15 16  1  0  0  0
 16 18  2  0  0  0
 21 22  2  0  0  0
 21 26  1  0  0  0
 22 23  1  0  0  0
 23 24  2  0  0  0
 24 29  1  0  0  0
 24 25  1  0  0  0
 25 26  2  0  0  0
 23 27  1  0  0  0
 27 28  1  0  0  0
 28 29  1  0  0  0
 11 19  1  0  0  0
 19 20  2  0  0  0
M  END
> <minimizedAffinity>
-6.48012

$$$$
1XOZ


 29 34  0  0  0  0  0  0  0  0999 V2000
   34.1006   62.3294   16.3562 C   0  0  0  0  0  0  0  0  0  0  0  0
   33.3204   63.2214   17.0736 C   0  0  0  0  0  0  0  0  0  0  0  0
   33.8265   64.3087   17.8357 C   0  0  0  0  0  0  0  0  0  0  0  0
   35.2210   64.5316   17.8954 C   0  0  0  0  0  0  0  0  0  0  0  0
   36.0060   63.6436   17.1798 C   0  0  0  0  0  0  0  0  0  0  0  0
   35.4822   62.5775   16.4338 C   0  0  0  0  0  0  0  0  0  0  0  0
   36.6291   61.8793   15.8352 C   0  0  0  0  0  0  0  0  0  0  0  0
   37.7183   62.5675   16.2608 C   0  0  0  0  0  0  0  0  0  0  0  0
   37.3653   63.5805   17.0308 N   0  0  0  0  0  0  0  0  0  0  0  0
   36.6642   60.6692   14.9449 C   0  0  0  0  0  0  0  0  0  0  0  0
   37.9436   60.6545   14.0981 C   0  0  0  0  0  0  0  0  0  0  0  0
   39.1356   61.2004   14.7562 N   0  0  0  0  0  0  0  0  0  0  0  0
   39.0758   62.1485   15.8554 C   0  0  0  0  0  0  0  0  0  0  0  0
   39.3756   59.1456   12.8258 N   0  0  0  0  0  0  0  0  0  0  0  0
   40.5402   59.9253   13.2448 C   0  0  0  0  0  0  0  0  0  0  0  0
   40.3804   60.8713   14.3494 C   0  0  0  0  0  0  0  0  0  0  0  0
   39.5470   57.9908   11.9634 C   0  0  0  0  0  0  0  0  0  0  0  0
   41.3881   61.3071   14.8456 O   0  0  0  0  0  0  0  0  0  0  0  0
   38.1466   59.4713   13.2056 C   0  0  0  0  0  0  0  0  0  0  0  0
   37.1175   58.8569   12.8806 O   0  0  0  0  0  0  0  0  0  0  0  0
   39.7257   61.6270   17.1843 C   0  0  0  0  0  0  0  0  0  0  0  0
   39.4215   60.3773   17.6988 C   0  0  0  0  0  0  0  0  0  0  0  0
   40.0344   59.9714   18.8862 C   0  0  0  0  0  0  0  0  0  0  0  0
   40.9150   60.7685   19.5472 C   0  0  0  0  0  0  0  0  0  0  0  0
   41.2511   62.0194   19.0819 C   0  0  0  0  0  0  0  0  0  0  0  0
   40.6529   62.4262   17.9094 C   0  0  0  0  0  0  0  0  0  0  0  0
   39.8469   58.7736   19.5293 O   0  0  0  0  0  0  0  0  0  0  0  0
   40.9415   58.8162   20.4919 C   0  0  0  0  0  0  0  0  0  0  0  0
   41.3775   60.1586   20.6767 O   0  0  0  0  0  0  0  0  0  0  0  0
  1  6  2  0  0  0
  1  2  1  0  0  0
  2  3  1  0  0  0
  3  4  2  0  0  0
  4  5  1  0  0  0
  5  6  1  0  0  0
  6  7  1  0  0  0
  7  8  2  0  0  0
  7 10  1  0  0  0
  8  9  1  0  0  0
  8 13  1  0  0  0
  5  9  2  0  0  0
 10 11  1  0  0  0
 11 12  1  0  0  0
 12 16  1  0  0  0
 12 13  1  0  0  0
 13 21  1  0  0  0
 14 17  1  0  0  0
 14 19  1  0  0  0
 14 15  1  0  0  0
 15 16  1  0  0  0
 16 18  2  0  0  0
 21 22  2  0  0  0
 21 26  1  0  0  0
 22 23  1  0  0  0
 23 24  2  0  0  0
 24 29  1  0  0  0
 24 25  1  0  0  0
 25 26  2  0  0  0
 23 27  1  0  0  0
 27 28  1  0  0  0
 28 29  1  0  0  0
 11 19  1  0  0  0
 19 20  2  0  0  0
M  END
> <minimizedAffinity>
-6.19099

$$$$
