1XOZ


 29 34  0  0  0  0  0  0  0  0999 V2000
   42.4829   55.1990   15.5086 C   0  0  0  0  0  0  0  0  0  0  0  0
   41.8361   55.1459   16.7326 C   0  0  0  0  0  0  0  0  0  0  0  0
   41.5444   53.9505   17.4431 C   0  0  0  0  0  0  0  0  0  0  0  0
   41.9218   52.7026   16.8969 C   0  0  0  0  0  0  0  0  0  0  0  0
   42.5690   52.7492   15.6740 C   0  0  0  0  0  0  0  0  0  0  0  0
   42.8465   53.9431   14.9919 C   0  0  0  0  0  0  0  0  0  0  0  0
   43.5315   53.5669   13.7468 C   0  0  0  0  0  0  0  0  0  0  0  0
   43.6066   52.2126   13.7844 C   0  0  0  0  0  0  0  0  0  0  0  0
   43.0571   51.7401   14.8883 N   0  0  0  0  0  0  0  0  0  0  0  0
   44.0563   54.4316   12.6355 C   0  0  0  0  0  0  0  0  0  0  0  0
   45.1829   53.7175   11.8772 C   0  0  0  0  0  0  0  0  0  0  0  0
   45.0333   52.2630   11.7588 N   0  0  0  0  0  0  0  0  0  0  0  0
   44.2406   51.4655   12.6788 C   0  0  0  0  0  0  0  0  0  0  0  0
   46.3616   53.7384    9.7426 N   0  0  0  0  0  0  0  0  0  0  0  0
   46.4866   52.2828    9.8170 C   0  0  0  0  0  0  0  0  0  0  0  0
   45.6615   51.5648   10.7886 C   0  0  0  0  0  0  0  0  0  0  0  0
   46.9115   54.4572    8.6079 C   0  0  0  0  0  0  0  0  0  0  0  0
   45.5842   50.3691   10.6622 O   0  0  0  0  0  0  0  0  0  0  0  0
   45.7619   54.4353   10.6993 C   0  0  0  0  0  0  0  0  0  0  0  0
   45.6287   55.6700   10.7002 O   0  0  0  0  0  0  0  0  0  0  0  0
   43.0482   50.7052   12.0003 C   0  0  0  0  0  0  0  0  0  0  0  0
   42.8224   49.3578   12.2302 C   0  0  0  0  0  0  0  0  0  0  0  0
   41.7431   48.7390   11.5958 C   0  0  0  0  0  0  0  0  0  0  0  0
   40.9151   49.4213   10.7611 C   0  0  0  0  0  0  0  0  0  0  0  0
   41.0948   50.7597   10.4960 C   0  0  0  0  0  0  0  0  0  0  0  0
   42.1557   51.3784   11.1203 C   0  0  0  0  0  0  0  0  0  0  0  0
   41.3793   47.4208   11.7117 O   0  0  0  0  0  0  0  0  0  0  0  0
   40.0607   47.4549   11.0899 C   0  0  0  0  0  0  0  0  0  0  0  0
   39.9404   48.6070   10.2625 O   0  0  0  0  0  0  0  0  0  0  0  0
  1  6  2  0  0  0
  1  2  1  0  0  0
  2  3  1  0  0  0
  3  4  2  0  0  0
  4  5  1  0  0  0
  5  6  1  0  0  0
  6  7  1  0  0  0
  7  8  2  0  0  0
  7 10  1  0  0  0
  8  9  1  0  0  0
  8 13  1  0  0  0
  5  9  2  0  0  0
 10 11  1  0  0  0
 11 12  1  0  0  0
 12 16  1  0  0  0
 12 13  1  0  0  0
 13 21  1  0  0  0
 14 17  1  0  0  0
 14 19  1  0  0  0
 14 15  1  0  0  0
 15 16  1  0  0  0
 16 18  2  0  0  0
 21 22  2  0  0  0
 21 26  1  0  0  0
 22 23  1  0  0  0
 23 24  2  0  0  0
 24 29  1  0  0  0
 24 25  1  0  0  0
 25 26  2  0  0  0
 23 27  1  0  0  0
 27 28  1  0  0  0
 28 29  1  0  0  0
 11 19  1  0  0  0
 19 20  2  0  0  0
M  END
> <minimizedAffinity>
-8.56151

$$$$
1XOZ


 29 34  0  0  0  0  0  0  0  0999 V2000
   38.7100   54.6857    9.0470 C   0  0  0  0  0  0  0  0  0  0  0  0
   38.5081   55.9826    8.6037 C   0  0  0  0  0  0  0  0  0  0  0  0
   39.3866   57.0705    8.8562 C   0  0  0  0  0  0  0  0  0  0  0  0
   40.5621   56.8592    9.6121 C   0  0  0  0  0  0  0  0  0  0  0  0
   40.7696   55.5649   10.0574 C   0  0  0  0  0  0  0  0  0  0  0  0
   39.8872   54.5067    9.7943 C   0  0  0  0  0  0  0  0  0  0  0  0
   40.4581   53.3134   10.4357 C   0  0  0  0  0  0  0  0  0  0  0  0
   41.6069   53.7439   11.0154 C   0  0  0  0  0  0  0  0  0  0  0  0
   41.7898   55.0337   10.7998 N   0  0  0  0  0  0  0  0  0  0  0  0
   39.9412   51.9032   10.4828 C   0  0  0  0  0  0  0  0  0  0  0  0
   41.0894   50.9109   10.7089 C   0  0  0  0  0  0  0  0  0  0  0  0
   42.1753   51.3959   11.5678 N   0  0  0  0  0  0  0  0  0  0  0  0
   42.4646   52.8055   11.7680 C   0  0  0  0  0  0  0  0  0  0  0  0
   41.5288   48.6423   11.4878 N   0  0  0  0  0  0  0  0  0  0  0  0
   42.7924   49.1030   12.0632 C   0  0  0  0  0  0  0  0  0  0  0  0
   43.0038   50.5434   12.2084 C   0  0  0  0  0  0  0  0  0  0  0  0
   41.1426   47.2483   11.6065 C   0  0  0  0  0  0  0  0  0  0  0  0
   43.9196   50.8934   12.9087 O   0  0  0  0  0  0  0  0  0  0  0  0
   40.7163   49.4683   10.8411 C   0  0  0  0  0  0  0  0  0  0  0  0
   39.6355   49.1404   10.3249 O   0  0  0  0  0  0  0  0  0  0  0  0
   42.3317   53.2792   13.2573 C   0  0  0  0  0  0  0  0  0  0  0  0
   41.1351   53.1746   13.9476 C   0  0  0  0  0  0  0  0  0  0  0  0
   41.0822   53.6143   15.2721 C   0  0  0  0  0  0  0  0  0  0  0  0
   42.1685   54.1418   15.8962 C   0  0  0  0  0  0  0  0  0  0  0  0
   43.3804   54.2709   15.2570 C   0  0  0  0  0  0  0  0  0  0  0  0
   43.4418   53.8367   13.9509 C   0  0  0  0  0  0  0  0  0  0  0  0
   39.9844   53.5839   16.0951 O   0  0  0  0  0  0  0  0  0  0  0  0
   40.6095   53.8739   17.3803 C   0  0  0  0  0  0  0  0  0  0  0  0
   41.8724   54.4993   17.1792 O   0  0  0  0  0  0  0  0  0  0  0  0
  1  6  2  0  0  0
  1  2  1  0  0  0
  2  3  1  0  0  0
  3  4  2  0  0  0
  4  5  1  0  0  0
  5  6  1  0  0  0
  6  7  1  0  0  0
  7  8  2  0  0  0
  7 10  1  0  0  0
  8  9  1  0  0  0
  8 13  1  0  0  0
  5  9  2  0  0  0
 10 11  1  0  0  0
 11 12  1  0  0  0
 12 16  1  0  0  0
 12 13  1  0  0  0
 13 21  1  0  0  0
 14 17  1  0  0  0
 14 19  1  0  0  0
 14 15  1  0  0  0
 15 16  1  0  0  0
 16 18  2  0  0  0
 21 22  2  0  0  0
 21 26  1  0  0  0
 22 23  1  0  0  0
 23 24  2  0  0  0
 24 29  1  0  0  0
 24 25  1  0  0  0
 25 26  2  0  0  0
 23 27  1  0  0  0
 27 28  1  0  0  0
 28 29  1  0  0  0
 11 19  1  0  0  0
 19 20  2  0  0  0
M  END
> <minimizedAffinity>
-8.22155

$$$$
1XOZ


 29 34  0  0  0  0  0  0  0  0999 V2000
   42.5964   52.5895   17.9137 C   0  0  0  0  0  0  0  0  0  0  0  0
   42.2435   53.0558   19.1696 C   0  0  0  0  0  0  0  0  0  0  0  0
   41.2634   54.0545   19.4164 C   0  0  0  0  0  0  0  0  0  0  0  0
   40.5760   54.6433   18.3307 C   0  0  0  0  0  0  0  0  0  0  0  0
   40.9240   54.1809   17.0731 C   0  0  0  0  0  0  0  0  0  0  0  0
   41.8953   53.1926   16.8549 C   0  0  0  0  0  0  0  0  0  0  0  0
   41.9701   52.9900   15.4008 C   0  0  0  0  0  0  0  0  0  0  0  0
   41.0602   53.8516   14.8804 C   0  0  0  0  0  0  0  0  0  0  0  0
   40.4574   54.5352   15.8359 N   0  0  0  0  0  0  0  0  0  0  0  0
   42.8361   52.0589   14.6000 C   0  0  0  0  0  0  0  0  0  0  0  0
   42.1874   51.7433   13.2458 C   0  0  0  0  0  0  0  0  0  0  0  0
   41.4246   52.8435   12.6461 N   0  0  0  0  0  0  0  0  0  0  0  0
   40.8539   53.9328   13.4197 C   0  0  0  0  0  0  0  0  0  0  0  0
   42.7301   50.9414   11.0078 N   0  0  0  0  0  0  0  0  0  0  0  0
   41.7090   51.8336   10.4591 C   0  0  0  0  0  0  0  0  0  0  0  0
   41.1774   52.8909   11.3194 C   0  0  0  0  0  0  0  0  0  0  0  0
   43.5039   50.0917   10.1214 C   0  0  0  0  0  0  0  0  0  0  0  0
   40.5412   53.7628   10.7839 O   0  0  0  0  0  0  0  0  0  0  0  0
   42.9684   50.8745   12.3114 C   0  0  0  0  0  0  0  0  0  0  0  0
   43.8142   50.1353   12.8409 O   0  0  0  0  0  0  0  0  0  0  0  0
   41.4091   55.3483   13.0351 C   0  0  0  0  0  0  0  0  0  0  0  0
   40.5626   56.4166   12.7868 C   0  0  0  0  0  0  0  0  0  0  0  0
   41.1199   57.6518   12.4490 C   0  0  0  0  0  0  0  0  0  0  0  0
   42.4642   57.8302   12.3558 C   0  0  0  0  0  0  0  0  0  0  0  0
   43.3500   56.8032   12.5899 C   0  0  0  0  0  0  0  0  0  0  0  0
   42.8083   55.5820   12.9265 C   0  0  0  0  0  0  0  0  0  0  0  0
   40.4306   58.8059   12.1728 O   0  0  0  0  0  0  0  0  0  0  0  0
   41.5191   59.7761   12.1973 C   0  0  0  0  0  0  0  0  0  0  0  0
   42.7664   59.1156   12.0121 O   0  0  0  0  0  0  0  0  0  0  0  0
  1  6  2  0  0  0
  1  2  1  0  0  0
  2  3  1  0  0  0
  3  4  2  0  0  0
  4  5  1  0  0  0
  5  6  1  0  0  0
  6  7  1  0  0  0
  7  8  2  0  0  0
  7 10  1  0  0  0
  8  9  1  0  0  0
  8 13  1  0  0  0
  5  9  2  0  0  0
 10 11  1  0  0  0
 11 12  1  0  0  0
 12 16  1  0  0  0
 12 13  1  0  0  0
 13 21  1  0  0  0
 14 17  1  0  0  0
 14 19  1  0  0  0
 14 15  1  0  0  0
 15 16  1  0  0  0
 16 18  2  0  0  0
 21 22  2  0  0  0
 21 26  1  0  0  0
 22 23  1  0  0  0
 23 24  2  0  0  0
 24 29  1  0  0  0
 24 25  1  0  0  0
 25 26  2  0  0  0
 23 27  1  0  0  0
 27 28  1  0  0  0
 28 29  1  0  0  0
 11 19  1  0  0  0
 19 20  2  0  0  0
M  END
> <minimizedAffinity>
-8.04348

$$$$
1XOZ


 29 34  0  0  0  0  0  0  0  0999 V2000
   41.2092   50.1977   10.0479 C   0  0  0  0  0  0  0  0  0  0  0  0
   39.9172   50.2520    9.5510 C   0  0  0  0  0  0  0  0  0  0  0  0
   39.0428   51.3635    9.6890 C   0  0  0  0  0  0  0  0  0  0  0  0
   39.4814   52.5171   10.3780 C   0  0  0  0  0  0  0  0  0  0  0  0
   40.7721   52.4689   10.8764 C   0  0  0  0  0  0  0  0  0  0  0  0
   41.6171   51.3593   10.7265 C   0  0  0  0  0  0  0  0  0  0  0  0
   42.8827   51.7013   11.3918 C   0  0  0  0  0  0  0  0  0  0  0  0
   42.6967   52.9562   11.8731 C   0  0  0  0  0  0  0  0  0  0  0  0
   41.4885   53.4003   11.5787 N   0  0  0  0  0  0  0  0  0  0  0  0
   44.1403   50.8934   11.5460 C   0  0  0  0  0  0  0  0  0  0  0  0
   45.3536   51.8103   11.7497 C   0  0  0  0  0  0  0  0  0  0  0  0
   45.0901   53.0366   12.5105 N   0  0  0  0  0  0  0  0  0  0  0  0
   43.7735   53.6414   12.6173 C   0  0  0  0  0  0  0  0  0  0  0  0
   47.6326   51.7993   12.6169 N   0  0  0  0  0  0  0  0  0  0  0  0
   47.4428   53.1722   13.0850 C   0  0  0  0  0  0  0  0  0  0  0  0
   46.0808   53.7037   13.1405 C   0  0  0  0  0  0  0  0  0  0  0  0
   48.9008   51.1274   12.8333 C   0  0  0  0  0  0  0  0  0  0  0  0
   45.9171   54.7233   13.7612 O   0  0  0  0  0  0  0  0  0  0  0  0
   46.6715   51.1415   11.9812 C   0  0  0  0  0  0  0  0  0  0  0  0
   46.7703   49.9798   11.5534 O   0  0  0  0  0  0  0  0  0  0  0  0
   43.2271   53.7261   14.0851 C   0  0  0  0  0  0  0  0  0  0  0  0
   42.6760   54.8936   14.5876 C   0  0  0  0  0  0  0  0  0  0  0  0
   42.2070   54.9040   15.9030 C   0  0  0  0  0  0  0  0  0  0  0  0
   42.2800   53.8044   16.6988 C   0  0  0  0  0  0  0  0  0  0  0  0
   42.8196   52.6201   16.2513 C   0  0  0  0  0  0  0  0  0  0  0  0
   43.2819   52.6006   14.9536 C   0  0  0  0  0  0  0  0  0  0  0  0
   41.6365   55.9691   16.5539 O   0  0  0  0  0  0  0  0  0  0  0  0
   41.0991   55.3010   17.7334 C   0  0  0  0  0  0  0  0  0  0  0  0
   41.7626   54.0579   17.9356 O   0  0  0  0  0  0  0  0  0  0  0  0
  1  6  2  0  0  0
  1  2  1  0  0  0
  2  3  1  0  0  0
  3  4  2  0  0  0
  4  5  1  0  0  0
  5  6  1  0  0  0
  6  7  1  0  0  0
  7  8  2  0  0  0
  7 10  1  0  0  0
  8  9  1  0  0  0
  8 13  1  0  0  0
  5  9  2  0  0  0
 10 11  1  0  0  0
 11 12  1  0  0  0
 12 16  1  0  0  0
 12 13  1  0  0  0
 13 21  1  0  0  0
 14 17  1  0  0  0
 14 19  1  0  0  0
 14 15  1  0  0  0
 15 16  1  0  0  0
 16 18  2  0  0  0
 21 22  2  0  0  0
 21 26  1  0  0  0
 22 23  1  0  0  0
 23 24  2  0  0  0
 24 29  1  0  0  0
 24 25  1  0  0  0
 25 26  2  0  0  0
 23 27  1  0  0  0
 27 28  1  0  0  0
 28 29  1  0  0  0
 11 19  1  0  0  0
 19 20  2  0  0  0
M  END
> <minimizedAffinity>
-7.81448

$$$$
1XOZ


 29 34  0  0  0  0  0  0  0  0999 V2000
   41.5768   55.5033   16.6900 C   0  0  0  0  0  0  0  0  0  0  0  0
   41.1622   55.0614   17.9358 C   0  0  0  0  0  0  0  0  0  0  0  0
   41.4290   53.7708   18.4671 C   0  0  0  0  0  0  0  0  0  0  0  0
   42.1653   52.8380   17.7019 C   0  0  0  0  0  0  0  0  0  0  0  0
   42.5828   53.2742   16.4560 C   0  0  0  0  0  0  0  0  0  0  0  0
   42.3074   54.5545   15.9536 C   0  0  0  0  0  0  0  0  0  0  0  0
   42.9128   54.6206   14.6156 C   0  0  0  0  0  0  0  0  0  0  0  0
   43.4871   53.4052   14.4312 C   0  0  0  0  0  0  0  0  0  0  0  0
   43.3013   52.6308   15.4845 N   0  0  0  0  0  0  0  0  0  0  0  0
   42.9301   55.7454   13.6193 C   0  0  0  0  0  0  0  0  0  0  0  0
   44.1307   55.6146   12.6728 C   0  0  0  0  0  0  0  0  0  0  0  0
   44.5148   54.2394   12.3362 N   0  0  0  0  0  0  0  0  0  0  0  0
   44.2011   53.0957   13.1754 C   0  0  0  0  0  0  0  0  0  0  0  0
   44.9267   56.3392   10.4848 N   0  0  0  0  0  0  0  0  0  0  0  0
   45.5892   55.0459   10.3166 C   0  0  0  0  0  0  0  0  0  0  0  0
   45.2231   53.9564   11.2219 C   0  0  0  0  0  0  0  0  0  0  0  0
   45.0179   57.3428    9.4403 C   0  0  0  0  0  0  0  0  0  0  0  0
   45.5771   52.8470   10.9129 O   0  0  0  0  0  0  0  0  0  0  0  0
   44.2433   56.6335   11.5834 C   0  0  0  0  0  0  0  0  0  0  0  0
   43.6647   57.7126   11.7911 O   0  0  0  0  0  0  0  0  0  0  0  0
   43.2959   52.0213   12.4780 C   0  0  0  0  0  0  0  0  0  0  0  0
   42.1281   52.3730   11.8207 C   0  0  0  0  0  0  0  0  0  0  0  0
   41.3663   51.3687   11.2194 C   0  0  0  0  0  0  0  0  0  0  0  0
   41.7385   50.0621   11.2652 C   0  0  0  0  0  0  0  0  0  0  0  0
   42.8871   49.6574   11.9062 C   0  0  0  0  0  0  0  0  0  0  0  0
   43.6459   50.6425   12.4995 C   0  0  0  0  0  0  0  0  0  0  0  0
   40.1906   51.5416   10.5328 O   0  0  0  0  0  0  0  0  0  0  0  0
   40.0522   50.2297    9.9113 C   0  0  0  0  0  0  0  0  0  0  0  0
   40.8384   49.2718   10.6118 O   0  0  0  0  0  0  0  0  0  0  0  0
  1  6  2  0  0  0
  1  2  1  0  0  0
  2  3  1  0  0  0
  3  4  2  0  0  0
  4  5  1  0  0  0
  5  6  1  0  0  0
  6  7  1  0  0  0
  7  8  2  0  0  0
  7 10  1  0  0  0
  8  9  1  0  0  0
  8 13  1  0  0  0
  5  9  2  0  0  0
 10 11  1  0  0  0
 11 12  1  0  0  0
 12 16  1  0  0  0
 12 13  1  0  0  0
 13 21  1  0  0  0
 14 17  1  0  0  0
 14 19  1  0  0  0
 14 15  1  0  0  0
 15 16  1  0  0  0
 16 18  2  0  0  0
 21 22  2  0  0  0
 21 26  1  0  0  0
 22 23  1  0  0  0
 23 24  2  0  0  0
 24 29  1  0  0  0
 24 25  1  0  0  0
 25 26  2  0  0  0
 23 27  1  0  0  0
 27 28  1  0  0  0
 28 29  1  0  0  0
 11 19  1  0  0  0
 19 20  2  0  0  0
M  END
> <minimizedAffinity>
-7.65006

$$$$
