1XOZ


 29 34  0  0  0  0  0  0  0  0999 V2000
   40.0797   16.0554   19.2792 C   0  0  0  0  0  0  0  0  0  0  0  0
   40.0113   15.9411   20.6581 C   0  0  0  0  0  0  0  0  0  0  0  0
   38.8228   15.6772   21.3907 C   0  0  0  0  0  0  0  0  0  0  0  0
   37.5988   15.5148   20.7028 C   0  0  0  0  0  0  0  0  0  0  0  0
   37.6609   15.6274   19.3244 C   0  0  0  0  0  0  0  0  0  0  0  0
   38.8475   15.8879   18.6233 C   0  0  0  0  0  0  0  0  0  0  0  0
   38.4924   15.9346   17.1976 C   0  0  0  0  0  0  0  0  0  0  0  0
   37.1558   15.7036   17.1624 C   0  0  0  0  0  0  0  0  0  0  0  0
   36.6755   15.5257   18.3795 N   0  0  0  0  0  0  0  0  0  0  0  0
   39.3595   16.1800   15.9951 C   0  0  0  0  0  0  0  0  0  0  0  0
   38.7343   15.5598   14.7386 C   0  0  0  0  0  0  0  0  0  0  0  0
   37.2685   15.5895   14.6895 N   0  0  0  0  0  0  0  0  0  0  0  0
   36.4326   15.6782   15.8744 C   0  0  0  0  0  0  0  0  0  0  0  0
   38.7876   15.7087   12.3053 N   0  0  0  0  0  0  0  0  0  0  0  0
   37.3570   15.4052   12.2725 C   0  0  0  0  0  0  0  0  0  0  0  0
   36.5989   15.5023   13.5201 C   0  0  0  0  0  0  0  0  0  0  0  0
   39.5114   15.9296   11.0668 C   0  0  0  0  0  0  0  0  0  0  0  0
   35.3974   15.5039   13.4306 O   0  0  0  0  0  0  0  0  0  0  0  0
   39.4582   15.7791   13.4480 C   0  0  0  0  0  0  0  0  0  0  0  0
   40.6716   16.0254   13.5444 O   0  0  0  0  0  0  0  0  0  0  0  0
   35.5260   16.9573   15.9218 C   0  0  0  0  0  0  0  0  0  0  0  0
   34.2131   16.9000   16.3604 C   0  0  0  0  0  0  0  0  0  0  0  0
   33.4584   18.0749   16.3788 C   0  0  0  0  0  0  0  0  0  0  0  0
   33.9761   19.2658   15.9770 C   0  0  0  0  0  0  0  0  0  0  0  0
   35.2729   19.3790   15.5304 C   0  0  0  0  0  0  0  0  0  0  0  0
   36.0252   18.2249   15.5118 C   0  0  0  0  0  0  0  0  0  0  0  0
   32.1516   18.1950   16.7806 O   0  0  0  0  0  0  0  0  0  0  0  0
   32.0321   19.6462   16.8608 C   0  0  0  0  0  0  0  0  0  0  0  0
   33.0520   20.2640   16.0833 O   0  0  0  0  0  0  0  0  0  0  0  0
  1  6  2  0  0  0
  1  2  1  0  0  0
  2  3  1  0  0  0
  3  4  2  0  0  0
  4  5  1  0  0  0
  5  6  1  0  0  0
  6  7  1  0  0  0
  7  8  2  0  0  0
  7 10  1  0  0  0
  8  9  1  0  0  0
  8 13  1  0  0  0
  5  9  2  0  0  0
 10 11  1  0  0  0
 11 12  1  0  0  0
 12 16  1  0  0  0
 12 13  1  0  0  0
 13 21  1  0  0  0
 14 17  1  0  0  0
 14 19  1  0  0  0
 14 15  1  0  0  0
 15 16  1  0  0  0
 16 18  2  0  0  0
 21 22  2  0  0  0
 21 26  1  0  0  0
 22 23  1  0  0  0
 23 24  2  0  0  0
 24 29  1  0  0  0
 24 25  1  0  0  0
 25 26  2  0  0  0
 23 27  1  0  0  0
 27 28  1  0  0  0
 28 29  1  0  0  0
 11 19  1  0  0  0
 19 20  2  0  0  0
M  END
> <minimizedAffinity>
-7.14922

$$$$
1XOZ


 29 34  0  0  0  0  0  0  0  0999 V2000
   32.9251   18.0472   14.1717 C   0  0  0  0  0  0  0  0  0  0  0  0
   32.4453   19.3263   14.4014 C   0  0  0  0  0  0  0  0  0  0  0  0
   33.1627   20.3513   15.0750 C   0  0  0  0  0  0  0  0  0  0  0  0
   34.4625   20.0893   15.5646 C   0  0  0  0  0  0  0  0  0  0  0  0
   34.9476   18.8127   15.3376 C   0  0  0  0  0  0  0  0  0  0  0  0
   34.2199   17.8174   14.6687 C   0  0  0  0  0  0  0  0  0  0  0  0
   35.0736   16.6210   14.6378 C   0  0  0  0  0  0  0  0  0  0  0  0
   36.2141   16.9887   15.2742 C   0  0  0  0  0  0  0  0  0  0  0  0
   36.1464   18.2448   15.6758 N   0  0  0  0  0  0  0  0  0  0  0  0
   34.8089   15.2621   14.0534 C   0  0  0  0  0  0  0  0  0  0  0  0
   36.1253   14.5515   13.7124 C   0  0  0  0  0  0  0  0  0  0  0  0
   37.2403   14.8286   14.6246 N   0  0  0  0  0  0  0  0  0  0  0  0
   37.3231   16.0271   15.4416 C   0  0  0  0  0  0  0  0  0  0  0  0
   37.0492   12.3313   13.3080 N   0  0  0  0  0  0  0  0  0  0  0  0
   38.2957   12.7524   13.9472 C   0  0  0  0  0  0  0  0  0  0  0  0
   38.2888   13.9850   14.7354 C   0  0  0  0  0  0  0  0  0  0  0  0
   36.9205   10.9833   12.7857 C   0  0  0  0  0  0  0  0  0  0  0  0
   39.2350   14.1781   15.4558 O   0  0  0  0  0  0  0  0  0  0  0  0
   36.0195   13.1582   13.1783 C   0  0  0  0  0  0  0  0  0  0  0  0
   34.9385   12.8661   12.6414 O   0  0  0  0  0  0  0  0  0  0  0  0
   37.3543   15.7469   16.9845 C   0  0  0  0  0  0  0  0  0  0  0  0
   38.4723   16.0325   17.7511 C   0  0  0  0  0  0  0  0  0  0  0  0
   38.4365   15.7598   19.1203 C   0  0  0  0  0  0  0  0  0  0  0  0
   37.3393   15.2216   19.7155 C   0  0  0  0  0  0  0  0  0  0  0  0
   36.2031   14.9167   19.0013 C   0  0  0  0  0  0  0  0  0  0  0  0
   36.2293   15.1854   17.6503 C   0  0  0  0  0  0  0  0  0  0  0  0
   39.4498   15.9795   20.0194 O   0  0  0  0  0  0  0  0  0  0  0  0
   38.7332   15.7935   21.2758 C   0  0  0  0  0  0  0  0  0  0  0  0
   37.5427   15.0455   21.0531 O   0  0  0  0  0  0  0  0  0  0  0  0
  1  6  2  0  0  0
  1  2  1  0  0  0
  2  3  1  0  0  0
  3  4  2  0  0  0
  4  5  1  0  0  0
  5  6  1  0  0  0
  6  7  1  0  0  0
  7  8  2  0  0  0
  7 10  1  0  0  0
  8  9  1  0  0  0
  8 13  1  0  0  0
  5  9  2  0  0  0
 10 11  1  0  0  0
 11 12  1  0  0  0
 12 16  1  0  0  0
 12 13  1  0  0  0
 13 21  1  0  0  0
 14 17  1  0  0  0
 14 19  1  0  0  0
 14 15  1  0  0  0
 15 16  1  0  0  0
 16 18  2  0  0  0
 21 22  2  0  0  0
 21 26  1  0  0  0
 22 23  1  0  0  0
 23 24  2  0  0  0
 24 29  1  0  0  0
 24 25  1  0  0  0
 25 26  2  0  0  0
 23 27  1  0  0  0
 27 28  1  0  0  0
 28 29  1  0  0  0
 11 19  1  0  0  0
 19 20  2  0  0  0
M  END
> <minimizedAffinity>
-6.70709

$$$$
1XOZ


 29 34  0  0  0  0  0  0  0  0999 V2000
   34.8582   12.8075   12.0573 C   0  0  0  0  0  0  0  0  0  0  0  0
   34.4685   12.8484   10.7286 C   0  0  0  0  0  0  0  0  0  0  0  0
   34.5824   13.9869    9.8861 C   0  0  0  0  0  0  0  0  0  0  0  0
   35.1251   15.1863   10.4007 C   0  0  0  0  0  0  0  0  0  0  0  0
   35.5169   15.1514   11.7281 C   0  0  0  0  0  0  0  0  0  0  0  0
   35.3949   14.0140   12.5399 C   0  0  0  0  0  0  0  0  0  0  0  0
   35.9132   14.3849   13.8646 C   0  0  0  0  0  0  0  0  0  0  0  0
   36.2941   15.6813   13.7406 C   0  0  0  0  0  0  0  0  0  0  0  0
   36.0698   16.1241   12.5169 N   0  0  0  0  0  0  0  0  0  0  0  0
   36.0251   13.5670   15.1202 C   0  0  0  0  0  0  0  0  0  0  0  0
   37.1289   14.1191   16.0318 C   0  0  0  0  0  0  0  0  0  0  0  0
   37.2889   15.5771   16.0078 N   0  0  0  0  0  0  0  0  0  0  0  0
   36.8713   16.4069   14.8908 C   0  0  0  0  0  0  0  0  0  0  0  0
   37.8732   14.1070   18.3539 N   0  0  0  0  0  0  0  0  0  0  0  0
   38.3311   15.4874   18.1963 C   0  0  0  0  0  0  0  0  0  0  0  0
   37.8738   16.2405   17.0283 C   0  0  0  0  0  0  0  0  0  0  0  0
   38.0374   13.4285   19.6264 C   0  0  0  0  0  0  0  0  0  0  0  0
   38.0440   17.4331   17.0462 O   0  0  0  0  0  0  0  0  0  0  0  0
   37.3136   13.4407   17.3522 C   0  0  0  0  0  0  0  0  0  0  0  0
   36.9105   12.2679   17.4180 O   0  0  0  0  0  0  0  0  0  0  0  0
   35.7772   17.4689   15.2586 C   0  0  0  0  0  0  0  0  0  0  0  0
   34.6225   17.1155   15.9376 C   0  0  0  0  0  0  0  0  0  0  0  0
   33.6870   18.1086   16.2357 C   0  0  0  0  0  0  0  0  0  0  0  0
   33.8788   19.4053   15.8758 C   0  0  0  0  0  0  0  0  0  0  0  0
   35.0061   19.8106   15.1984 C   0  0  0  0  0  0  0  0  0  0  0  0
   35.9355   18.8374   14.9031 C   0  0  0  0  0  0  0  0  0  0  0  0
   32.4977   17.9323   16.8975 O   0  0  0  0  0  0  0  0  0  0  0  0
   32.1341   19.3197   17.1617 C   0  0  0  0  0  0  0  0  0  0  0  0
   32.8321   20.1853   16.2730 O   0  0  0  0  0  0  0  0  0  0  0  0
  1  6  2  0  0  0
  1  2  1  0  0  0
  2  3  1  0  0  0
  3  4  2  0  0  0
  4  5  1  0  0  0
  5  6  1  0  0  0
  6  7  1  0  0  0
  7  8  2  0  0  0
  7 10  1  0  0  0
  8  9  1  0  0  0
  8 13  1  0  0  0
  5  9  2  0  0  0
 10 11  1  0  0  0
 11 12  1  0  0  0
 12 16  1  0  0  0
 12 13  1  0  0  0
 13 21  1  0  0  0
 14 17  1  0  0  0
 14 19  1  0  0  0
 14 15  1  0  0  0
 15 16  1  0  0  0
 16 18  2  0  0  0
 21 22  2  0  0  0
 21 26  1  0  0  0
 22 23  1  0  0  0
 23 24  2  0  0  0
 24 29  1  0  0  0
 24 25  1  0  0  0
 25 26  2  0  0  0
 23 27  1  0  0  0
 27 28  1  0  0  0
 28 29  1  0  0  0
 11 19  1  0  0  0
 19 20  2  0  0  0
M  END
> <minimizedAffinity>
-6.53368

$$$$
1XOZ


 29 34  0  0  0  0  0  0  0  0999 V2000
   36.0277   15.3529   19.1120 C   0  0  0  0  0  0  0  0  0  0  0  0
   36.9598   15.3638   20.1369 C   0  0  0  0  0  0  0  0  0  0  0  0
   38.2204   16.0168   20.0779 C   0  0  0  0  0  0  0  0  0  0  0  0
   38.5918   16.7158   18.9069 C   0  0  0  0  0  0  0  0  0  0  0  0
   37.6641   16.7089   17.8793 C   0  0  0  0  0  0  0  0  0  0  0  0
   36.4248   16.0570   17.9618 C   0  0  0  0  0  0  0  0  0  0  0  0
   35.7449   16.2817   16.6779 C   0  0  0  0  0  0  0  0  0  0  0  0
   36.6108   17.0313   15.9502 C   0  0  0  0  0  0  0  0  0  0  0  0
   37.7116   17.2795   16.6358 N   0  0  0  0  0  0  0  0  0  0  0  0
   34.3965   15.8156   16.2060 C   0  0  0  0  0  0  0  0  0  0  0  0
   33.8546   16.7419   15.1094 C   0  0  0  0  0  0  0  0  0  0  0  0
   34.8673   17.3067   14.2108 N   0  0  0  0  0  0  0  0  0  0  0  0
   36.2647   17.4572   14.5785 C   0  0  0  0  0  0  0  0  0  0  0  0
   32.2445   16.7978   13.2789 N   0  0  0  0  0  0  0  0  0  0  0  0
   33.1605   17.6510   12.5221 C   0  0  0  0  0  0  0  0  0  0  0  0
   34.5464   17.7571   12.9789 C   0  0  0  0  0  0  0  0  0  0  0  0
   30.9677   16.4147   12.7048 C   0  0  0  0  0  0  0  0  0  0  0  0
   35.3382   18.2452   12.2132 O   0  0  0  0  0  0  0  0  0  0  0  0
   32.5429   16.3647   14.4971 C   0  0  0  0  0  0  0  0  0  0  0  0
   31.8085   15.6452   15.1938 O   0  0  0  0  0  0  0  0  0  0  0  0
   37.2547   16.6500   13.6683 C   0  0  0  0  0  0  0  0  0  0  0  0
   38.3402   17.2585   13.0595 C   0  0  0  0  0  0  0  0  0  0  0  0
   39.1848   16.4842   12.2610 C   0  0  0  0  0  0  0  0  0  0  0  0
   38.9679   15.1566   12.0654 C   0  0  0  0  0  0  0  0  0  0  0  0
   37.9042   14.5026   12.6442 C   0  0  0  0  0  0  0  0  0  0  0  0
   37.0679   15.2589   13.4358 C   0  0  0  0  0  0  0  0  0  0  0  0
   40.2972   16.9249   11.5889 O   0  0  0  0  0  0  0  0  0  0  0  0
   40.8985   15.6517   11.2096 C   0  0  0  0  0  0  0  0  0  0  0  0
   39.9205   14.6182   11.2503 O   0  0  0  0  0  0  0  0  0  0  0  0
  1  6  2  0  0  0
  1  2  1  0  0  0
  2  3  1  0  0  0
  3  4  2  0  0  0
  4  5  1  0  0  0
  5  6  1  0  0  0
  6  7  1  0  0  0
  7  8  2  0  0  0
  7 10  1  0  0  0
  8  9  1  0  0  0
  8 13  1  0  0  0
  5  9  2  0  0  0
 10 11  1  0  0  0
 11 12  1  0  0  0
 12 16  1  0  0  0
 12 13  1  0  0  0
 13 21  1  0  0  0
 14 17  1  0  0  0
 14 19  1  0  0  0
 14 15  1  0  0  0
 15 16  1  0  0  0
 16 18  2  0  0  0
 21 22  2  0  0  0
 21 26  1  0  0  0
 22 23  1  0  0  0
 23 24  2  0  0  0
 24 29  1  0  0  0
 24 25  1  0  0  0
 25 26  2  0  0  0
 23 27  1  0  0  0
 27 28  1  0  0  0
 28 29  1  0  0  0
 11 19  1  0  0  0
 19 20  2  0  0  0
M  END
> <minimizedAffinity>
-6.51819

$$$$
1XOZ


 29 34  0  0  0  0  0  0  0  0999 V2000
   32.0565   15.6009   14.2664 C   0  0  0  0  0  0  0  0  0  0  0  0
   30.8717   16.0581   14.8201 C   0  0  0  0  0  0  0  0  0  0  0  0
   30.7845   16.9814   15.8967 C   0  0  0  0  0  0  0  0  0  0  0  0
   31.9675   17.4939   16.4760 C   0  0  0  0  0  0  0  0  0  0  0  0
   33.1547   17.0410   15.9265 C   0  0  0  0  0  0  0  0  0  0  0  0
   33.2150   16.1290   14.8624 C   0  0  0  0  0  0  0  0  0  0  0  0
   34.6403   15.9046   14.5809 C   0  0  0  0  0  0  0  0  0  0  0  0
   35.3002   16.6813   15.4766 C   0  0  0  0  0  0  0  0  0  0  0  0
   34.4521   17.3354   16.2490 N   0  0  0  0  0  0  0  0  0  0  0  0
   35.2934   15.0262   13.5513 C   0  0  0  0  0  0  0  0  0  0  0  0
   36.6997   15.5385   13.2133 C   0  0  0  0  0  0  0  0  0  0  0  0
   37.4312   16.1423   14.3324 N   0  0  0  0  0  0  0  0  0  0  0  0
   36.7771   16.7131   15.4972 C   0  0  0  0  0  0  0  0  0  0  0  0
   38.8222   14.8068   12.2616 N   0  0  0  0  0  0  0  0  0  0  0  0
   39.5245   15.6881   13.1943 C   0  0  0  0  0  0  0  0  0  0  0  0
   38.7785   16.2325   14.3291 C   0  0  0  0  0  0  0  0  0  0  0  0
   39.5746   14.0038   11.3152 C   0  0  0  0  0  0  0  0  0  0  0  0
   39.4217   16.7355   15.2150 O   0  0  0  0  0  0  0  0  0  0  0  0
   37.4980   14.7244   12.2449 C   0  0  0  0  0  0  0  0  0  0  0  0
   36.8419   14.0030   11.4760 O   0  0  0  0  0  0  0  0  0  0  0  0
   37.1539   16.0119   16.8487 C   0  0  0  0  0  0  0  0  0  0  0  0
   37.7187   16.7170   17.8989 C   0  0  0  0  0  0  0  0  0  0  0  0
   38.0311   16.0342   19.0764 C   0  0  0  0  0  0  0  0  0  0  0  0
   37.7988   14.7022   19.2158 C   0  0  0  0  0  0  0  0  0  0  0  0
   37.2421   13.9535   18.2041 C   0  0  0  0  0  0  0  0  0  0  0  0
   36.9282   14.6202   17.0400 C   0  0  0  0  0  0  0  0  0  0  0  0
   38.5918   16.5762   20.2057 O   0  0  0  0  0  0  0  0  0  0  0  0
   38.3936   15.4828   21.1501 C   0  0  0  0  0  0  0  0  0  0  0  0
   38.1868   14.2621   20.4477 O   0  0  0  0  0  0  0  0  0  0  0  0
  1  6  2  0  0  0
  1  2  1  0  0  0
  2  3  1  0  0  0
  3  4  2  0  0  0
  4  5  1  0  0  0
  5  6  1  0  0  0
  6  7  1  0  0  0
  7  8  2  0  0  0
  7 10  1  0  0  0
  8  9  1  0  0  0
  8 13  1  0  0  0
  5  9  2  0  0  0
 10 11  1  0  0  0
 11 12  1  0  0  0
 12 16  1  0  0  0
 12 13  1  0  0  0
 13 21  1  0  0  0
 14 17  1  0  0  0
 14 19  1  0  0  0
 14 15  1  0  0  0
 15 16  1  0  0  0
 16 18  2  0  0  0
 21 22  2  0  0  0
 21 26  1  0  0  0
 22 23  1  0  0  0
 23 24  2  0  0  0
 24 29  1  0  0  0
 24 25  1  0  0  0
 25 26  2  0  0  0
 23 27  1  0  0  0
 27 28  1  0  0  0
 28 29  1  0  0  0
 11 19  1  0  0  0
 19 20  2  0  0  0
M  END
> <minimizedAffinity>
-6.27422

$$$$
