1XOZ


 29 34  0  0  0  0  0  0  0  0999 V2000
   17.1213   54.3144   29.1174 C   0  0  0  0  0  0  0  0  0  0  0  0
   16.3523   53.2768   28.6161 C   0  0  0  0  0  0  0  0  0  0  0  0
   15.1492   52.8029   29.2052 C   0  0  0  0  0  0  0  0  0  0  0  0
   14.6671   53.4033   30.3904 C   0  0  0  0  0  0  0  0  0  0  0  0
   15.4312   54.4412   30.8960 C   0  0  0  0  0  0  0  0  0  0  0  0
   16.6159   54.8919   30.2953 C   0  0  0  0  0  0  0  0  0  0  0  0
   17.1199   55.9910   31.1313 C   0  0  0  0  0  0  0  0  0  0  0  0
   16.2181   56.1059   32.1386 C   0  0  0  0  0  0  0  0  0  0  0  0
   15.2478   55.2201   32.0066 N   0  0  0  0  0  0  0  0  0  0  0  0
   18.3495   56.8397   30.9704 C   0  0  0  0  0  0  0  0  0  0  0  0
   18.1721   58.1922   31.6729 C   0  0  0  0  0  0  0  0  0  0  0  0
   17.3778   58.1572   32.9058 N   0  0  0  0  0  0  0  0  0  0  0  0
   16.3982   57.1238   33.1942 C   0  0  0  0  0  0  0  0  0  0  0  0
   19.4554   60.0520   32.5897 N   0  0  0  0  0  0  0  0  0  0  0  0
   18.4501   60.2048   33.6413 C   0  0  0  0  0  0  0  0  0  0  0  0
   17.4909   59.1192   33.8466 C   0  0  0  0  0  0  0  0  0  0  0  0
   20.6038   60.9386   32.5488 C   0  0  0  0  0  0  0  0  0  0  0  0
   16.8480   59.1436   34.8652 O   0  0  0  0  0  0  0  0  0  0  0  0
   19.3442   59.1214   31.6504 C   0  0  0  0  0  0  0  0  0  0  0  0
   20.1568   58.9436   30.7283 O   0  0  0  0  0  0  0  0  0  0  0  0
   16.7150   56.2853   34.4813 C   0  0  0  0  0  0  0  0  0  0  0  0
   18.0099   55.9135   34.8043 C   0  0  0  0  0  0  0  0  0  0  0  0
   18.2256   55.1671   35.9648 C   0  0  0  0  0  0  0  0  0  0  0  0
   17.2023   54.7961   36.7790 C   0  0  0  0  0  0  0  0  0  0  0  0
   15.8973   55.1365   36.5046 C   0  0  0  0  0  0  0  0  0  0  0  0
   15.6763   55.8754   35.3630 C   0  0  0  0  0  0  0  0  0  0  0  0
   19.4367   54.7186   36.4291 O   0  0  0  0  0  0  0  0  0  0  0  0
   19.0633   54.2932   37.7731 C   0  0  0  0  0  0  0  0  0  0  0  0
   17.6584   54.0753   37.8439 O   0  0  0  0  0  0  0  0  0  0  0  0
  1  6  2  0  0  0
  1  2  1  0  0  0
  2  3  1  0  0  0
  3  4  2  0  0  0
  4  5  1  0  0  0
  5  6  1  0  0  0
  6  7  1  0  0  0
  7  8  2  0  0  0
  7 10  1  0  0  0
  8  9  1  0  0  0
  8 13  1  0  0  0
  5  9  2  0  0  0
 10 11  1  0  0  0
 11 12  1  0  0  0
 12 16  1  0  0  0
 12 13  1  0  0  0
 13 21  1  0  0  0
 14 17  1  0  0  0
 14 19  1  0  0  0
 14 15  1  0  0  0
 15 16  1  0  0  0
 16 18  2  0  0  0
 21 22  2  0  0  0
 21 26  1  0  0  0
 22 23  1  0  0  0
 23 24  2  0  0  0
 24 29  1  0  0  0
 24 25  1  0  0  0
 25 26  2  0  0  0
 23 27  1  0  0  0
 27 28  1  0  0  0
 28 29  1  0  0  0
 11 19  1  0  0  0
 19 20  2  0  0  0
M  END
> <minimizedAffinity>
-5.55682

$$$$
1XOZ


 29 34  0  0  0  0  0  0  0  0999 V2000
   24.6886   55.2374   35.4573 C   0  0  0  0  0  0  0  0  0  0  0  0
   23.7118   54.3715   34.9932 C   0  0  0  0  0  0  0  0  0  0  0  0
   22.6172   53.8972   35.7652 C   0  0  0  0  0  0  0  0  0  0  0  0
   22.4776   54.3117   37.1092 C   0  0  0  0  0  0  0  0  0  0  0  0
   23.4506   55.1775   37.5786 C   0  0  0  0  0  0  0  0  0  0  0  0
   24.5222   55.6326   36.7962 C   0  0  0  0  0  0  0  0  0  0  0  0
   25.3218   56.5200   37.6531 C   0  0  0  0  0  0  0  0  0  0  0  0
   24.6795   56.5238   38.8483 C   0  0  0  0  0  0  0  0  0  0  0  0
   23.6055   55.7565   38.8093 N   0  0  0  0  0  0  0  0  0  0  0  0
   26.5792   57.2827   37.3445 C   0  0  0  0  0  0  0  0  0  0  0  0
   26.7197   58.4968   38.2721 C   0  0  0  0  0  0  0  0  0  0  0  0
   26.2126   58.3047   39.6351 N   0  0  0  0  0  0  0  0  0  0  0  0
   25.2031   57.3180   39.9787 C   0  0  0  0  0  0  0  0  0  0  0  0
   28.3822   60.0533   39.1436 N   0  0  0  0  0  0  0  0  0  0  0  0
   27.6538   60.0946   40.4115 C   0  0  0  0  0  0  0  0  0  0  0  0
   26.6399   59.0701   40.6623 C   0  0  0  0  0  0  0  0  0  0  0  0
   29.5914   60.8382   38.9752 C   0  0  0  0  0  0  0  0  0  0  0  0
   26.2401   58.9625   41.7937 O   0  0  0  0  0  0  0  0  0  0  0  0
   27.9609   59.3183   38.1224 C   0  0  0  0  0  0  0  0  0  0  0  0
   28.5277   59.2446   37.0199 O   0  0  0  0  0  0  0  0  0  0  0  0
   25.6891   56.2394   41.0085 C   0  0  0  0  0  0  0  0  0  0  0  0
   26.8522   55.5147   40.8054 C   0  0  0  0  0  0  0  0  0  0  0  0
   27.2307   54.5687   41.7605 C   0  0  0  0  0  0  0  0  0  0  0  0
   26.4890   54.3407   42.8766 C   0  0  0  0  0  0  0  0  0  0  0  0
   25.3247   55.0304   43.1269 C   0  0  0  0  0  0  0  0  0  0  0  0
   24.9458   55.9676   42.1908 C   0  0  0  0  0  0  0  0  0  0  0  0
   28.3454   53.7695   41.7153 O   0  0  0  0  0  0  0  0  0  0  0  0
   28.3518   53.2476   43.0770 C   0  0  0  0  0  0  0  0  0  0  0  0
   27.0570   53.3746   43.6549 O   0  0  0  0  0  0  0  0  0  0  0  0
  1  6  2  0  0  0
  1  2  1  0  0  0
  2  3  1  0  0  0
  3  4  2  0  0  0
  4  5  1  0  0  0
  5  6  1  0  0  0
  6  7  1  0  0  0
  7  8  2  0  0  0
  7 10  1  0  0  0
  8  9  1  0  0  0
  8 13  1  0  0  0
  5  9  2  0  0  0
 10 11  1  0  0  0
 11 12  1  0  0  0
 12 16  1  0  0  0
 12 13  1  0  0  0
 13 21  1  0  0  0
 14 17  1  0  0  0
 14 19  1  0  0  0
 14 15  1  0  0  0
 15 16  1  0  0  0
 16 18  2  0  0  0
 21 22  2  0  0  0
 21 26  1  0  0  0
 22 23  1  0  0  0
 23 24  2  0  0  0
 24 29  1  0  0  0
 24 25  1  0  0  0
 25 26  2  0  0  0
 23 27  1  0  0  0
 27 28  1  0  0  0
 28 29  1  0  0  0
 11 19  1  0  0  0
 19 20  2  0  0  0
M  END
> <minimizedAffinity>
-4.94491

$$$$
1XOZ


 29 34  0  0  0  0  0  0  0  0999 V2000
   22.9764   53.9149   35.8169 C   0  0  0  0  0  0  0  0  0  0  0  0
   24.0638   54.6451   35.3655 C   0  0  0  0  0  0  0  0  0  0  0  0
   24.6717   55.7150   36.0760 C   0  0  0  0  0  0  0  0  0  0  0  0
   24.1606   56.0966   37.3373 C   0  0  0  0  0  0  0  0  0  0  0  0
   23.0742   55.3701   37.7939 C   0  0  0  0  0  0  0  0  0  0  0  0
   22.4916   54.3166   37.0738 C   0  0  0  0  0  0  0  0  0  0  0  0
   21.3762   53.8154   37.8897 C   0  0  0  0  0  0  0  0  0  0  0  0
   21.3822   54.5900   39.0037 C   0  0  0  0  0  0  0  0  0  0  0  0
   22.3549   55.4816   38.9533 N   0  0  0  0  0  0  0  0  0  0  0  0
   20.4046   52.7023   37.6155 C   0  0  0  0  0  0  0  0  0  0  0  0
   19.8354   52.1429   38.9259 C   0  0  0  0  0  0  0  0  0  0  0  0
   19.6448   53.1279   39.9961 N   0  0  0  0  0  0  0  0  0  0  0  0
   20.3828   54.3771   40.0707 C   0  0  0  0  0  0  0  0  0  0  0  0
   17.9457   50.8738   39.8004 N   0  0  0  0  0  0  0  0  0  0  0  0
   17.9934   51.6773   41.0218 C   0  0  0  0  0  0  0  0  0  0  0  0
   18.7791   52.9115   41.0096 C   0  0  0  0  0  0  0  0  0  0  0  0
   16.9508   49.8266   39.6587 C   0  0  0  0  0  0  0  0  0  0  0  0
   18.6019   53.6810   41.9195 O   0  0  0  0  0  0  0  0  0  0  0  0
   18.8031   51.0668   38.8063 C   0  0  0  0  0  0  0  0  0  0  0  0
   18.8207   50.4165   37.7484 O   0  0  0  0  0  0  0  0  0  0  0  0
   19.4790   55.6574   40.0064 C   0  0  0  0  0  0  0  0  0  0  0  0
   18.4769   55.7910   39.0591 C   0  0  0  0  0  0  0  0  0  0  0  0
   17.7065   56.9558   39.0549 C   0  0  0  0  0  0  0  0  0  0  0  0
   17.9160   57.9570   39.9500 C   0  0  0  0  0  0  0  0  0  0  0  0
   18.8986   57.8773   40.9103 C   0  0  0  0  0  0  0  0  0  0  0  0
   19.6613   56.7300   40.9231 C   0  0  0  0  0  0  0  0  0  0  0  0
   16.6809   57.2486   38.1911 O   0  0  0  0  0  0  0  0  0  0  0  0
   16.0977   58.4077   38.8566 C   0  0  0  0  0  0  0  0  0  0  0  0
   17.0447   58.9873   39.7474 O   0  0  0  0  0  0  0  0  0  0  0  0
  1  6  2  0  0  0
  1  2  1  0  0  0
  2  3  1  0  0  0
  3  4  2  0  0  0
  4  5  1  0  0  0
  5  6  1  0  0  0
  6  7  1  0  0  0
  7  8  2  0  0  0
  7 10  1  0  0  0
  8  9  1  0  0  0
  8 13  1  0  0  0
  5  9  2  0  0  0
 10 11  1  0  0  0
 11 12  1  0  0  0
 12 16  1  0  0  0
 12 13  1  0  0  0
 13 21  1  0  0  0
 14 17  1  0  0  0
 14 19  1  0  0  0
 14 15  1  0  0  0
 15 16  1  0  0  0
 16 18  2  0  0  0
 21 22  2  0  0  0
 21 26  1  0  0  0
 22 23  1  0  0  0
 23 24  2  0  0  0
 24 29  1  0  0  0
 24 25  1  0  0  0
 25 26  2  0  0  0
 23 27  1  0  0  0
 27 28  1  0  0  0
 28 29  1  0  0  0
 11 19  1  0  0  0
 19 20  2  0  0  0
M  END
> <minimizedAffinity>
-4.87799

$$$$
1XOZ


 29 34  0  0  0  0  0  0  0  0999 V2000
   23.0338   53.9941   35.8130 C   0  0  0  0  0  0  0  0  0  0  0  0
   24.1144   54.7356   35.3640 C   0  0  0  0  0  0  0  0  0  0  0  0
   24.7283   55.7924   36.0888 C   0  0  0  0  0  0  0  0  0  0  0  0
   24.2310   56.1474   37.3634 C   0  0  0  0  0  0  0  0  0  0  0  0
   23.1514   55.4095   37.8177 C   0  0  0  0  0  0  0  0  0  0  0  0
   22.5627   54.3695   37.0833 C   0  0  0  0  0  0  0  0  0  0  0  0
   21.4577   53.8495   37.9016 C   0  0  0  0  0  0  0  0  0  0  0  0
   21.4750   54.6015   39.0309 C   0  0  0  0  0  0  0  0  0  0  0  0
   22.4453   55.4961   38.9873 N   0  0  0  0  0  0  0  0  0  0  0  0
   20.4852   52.7400   37.6163 C   0  0  0  0  0  0  0  0  0  0  0  0
   19.9322   52.1531   38.9216 C   0  0  0  0  0  0  0  0  0  0  0  0
   19.7520   53.1160   40.0135 N   0  0  0  0  0  0  0  0  0  0  0  0
   20.4883   54.3650   40.1048 C   0  0  0  0  0  0  0  0  0  0  0  0
   18.0553   50.8624   39.7920 N   0  0  0  0  0  0  0  0  0  0  0  0
   18.1154   51.6414   41.0287 C   0  0  0  0  0  0  0  0  0  0  0  0
   18.8985   52.8773   41.0323 C   0  0  0  0  0  0  0  0  0  0  0  0
   17.0608   49.8161   39.6407 C   0  0  0  0  0  0  0  0  0  0  0  0
   18.7302   53.6280   41.9595 O   0  0  0  0  0  0  0  0  0  0  0  0
   18.9008   51.0773   38.7922 C   0  0  0  0  0  0  0  0  0  0  0  0
   18.9075   50.4485   37.7213 O   0  0  0  0  0  0  0  0  0  0  0  0
   19.5813   55.6443   40.0766 C   0  0  0  0  0  0  0  0  0  0  0  0
   19.7633   56.6825   40.9757 C   0  0  0  0  0  0  0  0  0  0  0  0
   18.9222   57.7947   40.8980 C   0  0  0  0  0  0  0  0  0  0  0  0
   17.9334   57.8821   39.9693 C   0  0  0  0  0  0  0  0  0  0  0  0
   17.7075   56.8794   39.0541 C   0  0  0  0  0  0  0  0  0  0  0  0
   18.5349   55.7799   39.1222 C   0  0  0  0  0  0  0  0  0  0  0  0
   18.9643   58.9033   41.7058 O   0  0  0  0  0  0  0  0  0  0  0  0
   18.0846   59.8019   40.9674 C   0  0  0  0  0  0  0  0  0  0  0  0
   17.2473   59.0551   40.0914 O   0  0  0  0  0  0  0  0  0  0  0  0
  1  6  2  0  0  0
  1  2  1  0  0  0
  2  3  1  0  0  0
  3  4  2  0  0  0
  4  5  1  0  0  0
  5  6  1  0  0  0
  6  7  1  0  0  0
  7  8  2  0  0  0
  7 10  1  0  0  0
  8  9  1  0  0  0
  8 13  1  0  0  0
  5  9  2  0  0  0
 10 11  1  0  0  0
 11 12  1  0  0  0
 12 16  1  0  0  0
 12 13  1  0  0  0
 13 21  1  0  0  0
 14 17  1  0  0  0
 14 19  1  0  0  0
 14 15  1  0  0  0
 15 16  1  0  0  0
 16 18  2  0  0  0
 21 22  2  0  0  0
 21 26  1  0  0  0
 22 23  1  0  0  0
 23 24  2  0  0  0
 24 29  1  0  0  0
 24 25  1  0  0  0
 25 26  2  0  0  0
 23 27  1  0  0  0
 27 28  1  0  0  0
 28 29  1  0  0  0
 11 19  1  0  0  0
 19 20  2  0  0  0
M  END
> <minimizedAffinity>
-4.77271

$$$$
1XOZ


 29 34  0  0  0  0  0  0  0  0999 V2000
   18.6457   55.3526   34.4353 C   0  0  0  0  0  0  0  0  0  0  0  0
   17.7216   55.7301   33.4747 C   0  0  0  0  0  0  0  0  0  0  0  0
   16.3116   55.6791   33.6435 C   0  0  0  0  0  0  0  0  0  0  0  0
   15.7697   55.2138   34.8632 C   0  0  0  0  0  0  0  0  0  0  0  0
   16.6884   54.8356   35.8273 C   0  0  0  0  0  0  0  0  0  0  0  0
   18.0769   54.8958   35.6370 C   0  0  0  0  0  0  0  0  0  0  0  0
   18.6934   54.4094   36.8797 C   0  0  0  0  0  0  0  0  0  0  0  0
   17.6499   54.1056   37.6921 C   0  0  0  0  0  0  0  0  0  0  0  0
   16.4988   54.3498   37.0930 N   0  0  0  0  0  0  0  0  0  0  0  0
   20.1439   54.2535   37.2401 C   0  0  0  0  0  0  0  0  0  0  0  0
   20.3340   54.3024   38.7618 C   0  0  0  0  0  0  0  0  0  0  0  0
   19.2448   53.7121   39.5475 N   0  0  0  0  0  0  0  0  0  0  0  0
   17.8865   53.5752   39.0505 C   0  0  0  0  0  0  0  0  0  0  0  0
   21.9041   53.6583   40.5129 N   0  0  0  0  0  0  0  0  0  0  0  0
   20.7745   53.3850   41.4013 C   0  0  0  0  0  0  0  0  0  0  0  0
   19.4387   53.2834   40.8132 C   0  0  0  0  0  0  0  0  0  0  0  0
   23.2627   53.4626   40.9847 C   0  0  0  0  0  0  0  0  0  0  0  0
   18.5725   52.8095   41.5036 O   0  0  0  0  0  0  0  0  0  0  0  0
   21.7246   54.0968   39.2735 C   0  0  0  0  0  0  0  0  0  0  0  0
   22.6383   54.3537   38.4726 O   0  0  0  0  0  0  0  0  0  0  0  0
   17.3816   52.0923   38.9732 C   0  0  0  0  0  0  0  0  0  0  0  0
   16.1142   51.7342   39.4032 C   0  0  0  0  0  0  0  0  0  0  0  0
   15.7245   50.3966   39.3074 C   0  0  0  0  0  0  0  0  0  0  0  0
   16.5539   49.4423   38.8083 C   0  0  0  0  0  0  0  0  0  0  0  0
   17.8232   49.7424   38.3692 C   0  0  0  0  0  0  0  0  0  0  0  0
   18.2144   51.0604   38.4576 C   0  0  0  0  0  0  0  0  0  0  0  0
   14.5130   49.8741   39.6854 O   0  0  0  0  0  0  0  0  0  0  0  0
   14.5953   48.5504   39.0791 C   0  0  0  0  0  0  0  0  0  0  0  0
   15.9541   48.2168   38.8171 O   0  0  0  0  0  0  0  0  0  0  0  0
  1  6  2  0  0  0
  1  2  1  0  0  0
  2  3  1  0  0  0
  3  4  2  0  0  0
  4  5  1  0  0  0
  5  6  1  0  0  0
  6  7  1  0  0  0
  7  8  2  0  0  0
  7 10  1  0  0  0
  8  9  1  0  0  0
  8 13  1  0  0  0
  5  9  2  0  0  0
 10 11  1  0  0  0
 11 12  1  0  0  0
 12 16  1  0  0  0
 12 13  1  0  0  0
 13 21  1  0  0  0
 14 17  1  0  0  0
 14 19  1  0  0  0
 14 15  1  0  0  0
 15 16  1  0  0  0
 16 18  2  0  0  0
 21 22  2  0  0  0
 21 26  1  0  0  0
 22 23  1  0  0  0
 23 24  2  0  0  0
 24 29  1  0  0  0
 24 25  1  0  0  0
 25 26  2  0  0  0
 23 27  1  0  0  0
 27 28  1  0  0  0
 28 29  1  0  0  0
 11 19  1  0  0  0
 19 20  2  0  0  0
M  END
> <minimizedAffinity>
-4.75224

$$$$
