1XOZ


 29 34  0  0  0  0  0  0  0  0999 V2000
   57.6592   31.7957   39.6554 C   0  0  0  0  0  0  0  0  0  0  0  0
   56.6194   32.0309   40.5402 C   0  0  0  0  0  0  0  0  0  0  0  0
   55.5825   32.9808   40.3368 C   0  0  0  0  0  0  0  0  0  0  0  0
   55.5737   33.7657   39.1613 C   0  0  0  0  0  0  0  0  0  0  0  0
   56.6101   33.5347   38.2729 C   0  0  0  0  0  0  0  0  0  0  0  0
   57.6227   32.5900   38.4960 C   0  0  0  0  0  0  0  0  0  0  0  0
   58.5210   32.6537   37.3341 C   0  0  0  0  0  0  0  0  0  0  0  0
   57.9860   33.6070   36.5304 C   0  0  0  0  0  0  0  0  0  0  0  0
   56.8898   34.1137   37.0643 N   0  0  0  0  0  0  0  0  0  0  0  0
   59.7695   31.8722   37.0362 C   0  0  0  0  0  0  0  0  0  0  0  0
   60.0277   31.8160   35.5248 C   0  0  0  0  0  0  0  0  0  0  0  0
   59.6360   33.0166   34.7782 N   0  0  0  0  0  0  0  0  0  0  0  0
   58.6306   33.9546   35.2473 C   0  0  0  0  0  0  0  0  0  0  0  0
   61.8070   31.4266   33.9035 N   0  0  0  0  0  0  0  0  0  0  0  0
   61.1938   32.4167   33.0184 C   0  0  0  0  0  0  0  0  0  0  0  0
   60.1748   33.3071   33.5746 C   0  0  0  0  0  0  0  0  0  0  0  0
   63.0204   30.7419   33.4967 C   0  0  0  0  0  0  0  0  0  0  0  0
   59.8723   34.2698   32.9163 O   0  0  0  0  0  0  0  0  0  0  0  0
   61.2756   31.1212   35.0804 C   0  0  0  0  0  0  0  0  0  0  0  0
   61.7415   30.2873   35.8740 O   0  0  0  0  0  0  0  0  0  0  0  0
   59.1715   35.4092   35.4748 C   0  0  0  0  0  0  0  0  0  0  0  0
   60.2821   35.6546   36.2657 C   0  0  0  0  0  0  0  0  0  0  0  0
   60.7138   36.9728   36.4285 C   0  0  0  0  0  0  0  0  0  0  0  0
   60.0734   38.0151   35.8359 C   0  0  0  0  0  0  0  0  0  0  0  0
   58.9646   37.8283   35.0423 C   0  0  0  0  0  0  0  0  0  0  0  0
   58.5340   36.5304   34.8743 C   0  0  0  0  0  0  0  0  0  0  0  0
   61.7886   37.3898   37.1731 O   0  0  0  0  0  0  0  0  0  0  0  0
   61.9045   38.7708   36.7194 C   0  0  0  0  0  0  0  0  0  0  0  0
   60.6761   39.2002   36.1423 O   0  0  0  0  0  0  0  0  0  0  0  0
  1  6  2  0  0  0
  1  2  1  0  0  0
  2  3  1  0  0  0
  3  4  2  0  0  0
  4  5  1  0  0  0
  5  6  1  0  0  0
  6  7  1  0  0  0
  7  8  2  0  0  0
  7 10  1  0  0  0
  8  9  1  0  0  0
  8 13  1  0  0  0
  5  9  2  0  0  0
 10 11  1  0  0  0
 11 12  1  0  0  0
 12 16  1  0  0  0
 12 13  1  0  0  0
 13 21  1  0  0  0
 14 17  1  0  0  0
 14 19  1  0  0  0
 14 15  1  0  0  0
 15 16  1  0  0  0
 16 18  2  0  0  0
 21 22  2  0  0  0
 21 26  1  0  0  0
 22 23  1  0  0  0
 23 24  2  0  0  0
 24 29  1  0  0  0
 24 25  1  0  0  0
 25 26  2  0  0  0
 23 27  1  0  0  0
 27 28  1  0  0  0
 28 29  1  0  0  0
 11 19  1  0  0  0
 19 20  2  0  0  0
M  END
> <minimizedAffinity>
-5.99555

$$$$
1XOZ


 29 34  0  0  0  0  0  0  0  0999 V2000
   63.5385   34.0568   28.4189 C   0  0  0  0  0  0  0  0  0  0  0  0
   64.6849   34.8225   28.2825 C   0  0  0  0  0  0  0  0  0  0  0  0
   65.5429   35.1934   29.3527 C   0  0  0  0  0  0  0  0  0  0  0  0
   65.2412   34.7742   30.6684 C   0  0  0  0  0  0  0  0  0  0  0  0
   64.0968   34.0082   30.8110 C   0  0  0  0  0  0  0  0  0  0  0  0
   63.2656   33.6542   29.7380 C   0  0  0  0  0  0  0  0  0  0  0  0
   62.1700   32.8521   30.3012 C   0  0  0  0  0  0  0  0  0  0  0  0
   62.4286   32.7925   31.6319 C   0  0  0  0  0  0  0  0  0  0  0  0
   63.5330   33.4529   31.9280 N   0  0  0  0  0  0  0  0  0  0  0  0
   60.9938   32.2121   29.6193 C   0  0  0  0  0  0  0  0  0  0  0  0
   60.4738   31.0217   30.4359 C   0  0  0  0  0  0  0  0  0  0  0  0
   60.5726   31.1712   31.8919 N   0  0  0  0  0  0  0  0  0  0  0  0
   61.5236   32.0581   32.5398 C   0  0  0  0  0  0  0  0  0  0  0  0
   58.4907   29.6366   30.7442 N   0  0  0  0  0  0  0  0  0  0  0  0
   58.8064   29.5319   32.1687 C   0  0  0  0  0  0  0  0  0  0  0  0
   59.7923   30.4556   32.7301 C   0  0  0  0  0  0  0  0  0  0  0  0
   57.3170   28.9706   30.2098 C   0  0  0  0  0  0  0  0  0  0  0  0
   59.8495   30.5299   33.9313 O   0  0  0  0  0  0  0  0  0  0  0  0
   59.2608   30.3225   29.9092 C   0  0  0  0  0  0  0  0  0  0  0  0
   59.0531   30.4447   28.6910 O   0  0  0  0  0  0  0  0  0  0  0  0
   60.8587   33.1835   33.4066 C   0  0  0  0  0  0  0  0  0  0  0  0
   59.8005   33.9384   32.9273 C   0  0  0  0  0  0  0  0  0  0  0  0
   59.2521   34.9256   33.7489 C   0  0  0  0  0  0  0  0  0  0  0  0
   59.7299   35.1647   34.9989 C   0  0  0  0  0  0  0  0  0  0  0  0
   60.7799   34.4463   35.5235 C   0  0  0  0  0  0  0  0  0  0  0  0
   61.3247   33.4684   34.7203 C   0  0  0  0  0  0  0  0  0  0  0  0
   58.2081   35.7584   33.4327 O   0  0  0  0  0  0  0  0  0  0  0  0
   57.9135   36.3227   34.7447 C   0  0  0  0  0  0  0  0  0  0  0  0
   59.0378   36.1725   35.6047 O   0  0  0  0  0  0  0  0  0  0  0  0
  1  6  2  0  0  0
  1  2  1  0  0  0
  2  3  1  0  0  0
  3  4  2  0  0  0
  4  5  1  0  0  0
  5  6  1  0  0  0
  6  7  1  0  0  0
  7  8  2  0  0  0
  7 10  1  0  0  0
  8  9  1  0  0  0
  8 13  1  0  0  0
  5  9  2  0  0  0
 10 11  1  0  0  0
 11 12  1  0  0  0
 12 16  1  0  0  0
 12 13  1  0  0  0
 13 21  1  0  0  0
 14 17  1  0  0  0
 14 19  1  0  0  0
 14 15  1  0  0  0
 15 16  1  0  0  0
 16 18  2  0  0  0
 21 22  2  0  0  0
 21 26  1  0  0  0
 22 23  1  0  0  0
 23 24  2  0  0  0
 24 29  1  0  0  0
 24 25  1  0  0  0
 25 26  2  0  0  0
 23 27  1  0  0  0
 27 28  1  0  0  0
 28 29  1  0  0  0
 11 19  1  0  0  0
 19 20  2  0  0  0
M  END
> <minimizedAffinity>
-5.72529

$$$$
1XOZ


 29 34  0  0  0  0  0  0  0  0999 V2000
   59.1090   35.8419   33.7290 C   0  0  0  0  0  0  0  0  0  0  0  0
   58.3419   36.3346   34.7721 C   0  0  0  0  0  0  0  0  0  0  0  0
   57.9135   35.5725   35.8923 C   0  0  0  0  0  0  0  0  0  0  0  0
   58.2714   34.2085   35.9882 C   0  0  0  0  0  0  0  0  0  0  0  0
   59.0384   33.7105   34.9488 C   0  0  0  0  0  0  0  0  0  0  0  0
   59.4499   34.4837   33.8532 C   0  0  0  0  0  0  0  0  0  0  0  0
   60.2325   33.5955   32.9816 C   0  0  0  0  0  0  0  0  0  0  0  0
   60.2261   32.3935   33.6110 C   0  0  0  0  0  0  0  0  0  0  0  0
   59.5437   32.4556   34.7398 N   0  0  0  0  0  0  0  0  0  0  0  0
   60.9135   33.8831   31.6733 C   0  0  0  0  0  0  0  0  0  0  0  0
   62.0672   32.9004   31.4338 C   0  0  0  0  0  0  0  0  0  0  0  0
   61.8473   31.5418   31.9415 N   0  0  0  0  0  0  0  0  0  0  0  0
   60.9231   31.2331   33.0191 C   0  0  0  0  0  0  0  0  0  0  0  0
   63.4513   31.9764   29.6513 N   0  0  0  0  0  0  0  0  0  0  0  0
   63.4850   30.6989   30.3632 C   0  0  0  0  0  0  0  0  0  0  0  0
   62.5279   30.4846   31.4488 C   0  0  0  0  0  0  0  0  0  0  0  0
   64.1511   32.1223   28.3882 C   0  0  0  0  0  0  0  0  0  0  0  0
   62.3955   29.3547   31.8453 O   0  0  0  0  0  0  0  0  0  0  0  0
   62.8003   33.0262   30.1358 C   0  0  0  0  0  0  0  0  0  0  0  0
   62.7383   34.1380   29.5860 O   0  0  0  0  0  0  0  0  0  0  0  0
   59.7625   30.2622   32.6061 C   0  0  0  0  0  0  0  0  0  0  0  0
   59.0138   30.4731   31.4597 C   0  0  0  0  0  0  0  0  0  0  0  0
   57.9940   29.5715   31.1472 C   0  0  0  0  0  0  0  0  0  0  0  0
   57.7176   28.5001   31.9368 C   0  0  0  0  0  0  0  0  0  0  0  0
   58.4282   28.2448   33.0874 C   0  0  0  0  0  0  0  0  0  0  0  0
   59.4380   29.1279   33.4013 C   0  0  0  0  0  0  0  0  0  0  0  0
   57.1621   29.6315   30.0573 O   0  0  0  0  0  0  0  0  0  0  0  0
   56.5509   28.3089   30.1183 C   0  0  0  0  0  0  0  0  0  0  0  0
   56.6831   27.7696   31.4290 O   0  0  0  0  0  0  0  0  0  0  0  0
  1  6  2  0  0  0
  1  2  1  0  0  0
  2  3  1  0  0  0
  3  4  2  0  0  0
  4  5  1  0  0  0
  5  6  1  0  0  0
  6  7  1  0  0  0
  7  8  2  0  0  0
  7 10  1  0  0  0
  8  9  1  0  0  0
  8 13  1  0  0  0
  5  9  2  0  0  0
 10 11  1  0  0  0
 11 12  1  0  0  0
 12 16  1  0  0  0
 12 13  1  0  0  0
 13 21  1  0  0  0
 14 17  1  0  0  0
 14 19  1  0  0  0
 14 15  1  0  0  0
 15 16  1  0  0  0
 16 18  2  0  0  0
 21 22  2  0  0  0
 21 26  1  0  0  0
 22 23  1  0  0  0
 23 24  2  0  0  0
 24 29  1  0  0  0
 24 25  1  0  0  0
 25 26  2  0  0  0
 23 27  1  0  0  0
 27 28  1  0  0  0
 28 29  1  0  0  0
 11 19  1  0  0  0
 19 20  2  0  0  0
M  END
> <minimizedAffinity>
-5.04290

$$$$
1XOZ


 29 34  0  0  0  0  0  0  0  0999 V2000
   62.1448   31.9480   29.2096 C   0  0  0  0  0  0  0  0  0  0  0  0
   63.1471   32.5502   28.4667 C   0  0  0  0  0  0  0  0  0  0  0  0
   64.0570   33.5187   28.9696 C   0  0  0  0  0  0  0  0  0  0  0  0
   63.9674   33.9279   30.3196 C   0  0  0  0  0  0  0  0  0  0  0  0
   62.9679   33.3291   31.0673 C   0  0  0  0  0  0  0  0  0  0  0  0
   62.0815   32.3741   30.5478 C   0  0  0  0  0  0  0  0  0  0  0  0
   61.1822   31.9931   31.6465 C   0  0  0  0  0  0  0  0  0  0  0  0
   61.5935   32.7324   32.7074 C   0  0  0  0  0  0  0  0  0  0  0  0
   62.6179   33.4986   32.3798 N   0  0  0  0  0  0  0  0  0  0  0  0
   60.0412   31.0154   31.6641 C   0  0  0  0  0  0  0  0  0  0  0  0
   59.7919   30.4968   33.0865 C   0  0  0  0  0  0  0  0  0  0  0  0
   60.0301   31.4702   34.1578 N   0  0  0  0  0  0  0  0  0  0  0  0
   60.9104   32.6168   34.0122 C   0  0  0  0  0  0  0  0  0  0  0  0
   58.0750   29.4478   34.4643 N   0  0  0  0  0  0  0  0  0  0  0  0
   58.5595   30.2079   35.6163 C   0  0  0  0  0  0  0  0  0  0  0  0
   59.4592   31.3360   35.3742 C   0  0  0  0  0  0  0  0  0  0  0  0
   56.9568   28.5349   34.6150 C   0  0  0  0  0  0  0  0  0  0  0  0
   59.6387   32.0980   36.2899 O   0  0  0  0  0  0  0  0  0  0  0  0
   58.6406   29.5593   33.2691 C   0  0  0  0  0  0  0  0  0  0  0  0
   58.2829   28.9390   32.2544 O   0  0  0  0  0  0  0  0  0  0  0  0
   60.1918   33.9997   34.1893 C   0  0  0  0  0  0  0  0  0  0  0  0
   60.5875   34.9035   35.1619 C   0  0  0  0  0  0  0  0  0  0  0  0
   59.9068   36.1183   35.2679 C   0  0  0  0  0  0  0  0  0  0  0  0
   58.8699   36.4329   34.4472 C   0  0  0  0  0  0  0  0  0  0  0  0
   58.4345   35.5716   33.4661 C   0  0  0  0  0  0  0  0  0  0  0  0
   59.1027   34.3721   33.3529 C   0  0  0  0  0  0  0  0  0  0  0  0
   60.1671   37.1196   36.1697 O   0  0  0  0  0  0  0  0  0  0  0  0
   59.3663   38.1992   35.6042 C   0  0  0  0  0  0  0  0  0  0  0  0
   58.3663   37.6661   34.7427 O   0  0  0  0  0  0  0  0  0  0  0  0
  1  6  2  0  0  0
  1  2  1  0  0  0
  2  3  1  0  0  0
  3  4  2  0  0  0
  4  5  1  0  0  0
  5  6  1  0  0  0
  6  7  1  0  0  0
  7  8  2  0  0  0
  7 10  1  0  0  0
  8  9  1  0  0  0
  8 13  1  0  0  0
  5  9  2  0  0  0
 10 11  1  0  0  0
 11 12  1  0  0  0
 12 16  1  0  0  0
 12 13  1  0  0  0
 13 21  1  0  0  0
 14 17  1  0  0  0
 14 19  1  0  0  0
 14 15  1  0  0  0
 15 16  1  0  0  0
 16 18  2  0  0  0
 21 22  2  0  0  0
 21 26  1  0  0  0
 22 23  1  0  0  0
 23 24  2  0  0  0
 24 29  1  0  0  0
 24 25  1  0  0  0
 25 26  2  0  0  0
 23 27  1  0  0  0
 27 28  1  0  0  0
 28 29  1  0  0  0
 11 19  1  0  0  0
 19 20  2  0  0  0
M  END
> <minimizedAffinity>
-4.99668

$$$$
1XOZ


 29 34  0  0  0  0  0  0  0  0999 V2000
   60.1018   36.0930   35.8834 C   0  0  0  0  0  0  0  0  0  0  0  0
   59.4135   37.2623   35.6040 C   0  0  0  0  0  0  0  0  0  0  0  0
   58.5507   37.4475   34.4903 C   0  0  0  0  0  0  0  0  0  0  0  0
   58.3535   36.3889   33.5747 C   0  0  0  0  0  0  0  0  0  0  0  0
   59.0385   35.2174   33.8490 C   0  0  0  0  0  0  0  0  0  0  0  0
   59.8847   35.0586   34.9564 C   0  0  0  0  0  0  0  0  0  0  0  0
   60.4158   33.6896   34.8872 C   0  0  0  0  0  0  0  0  0  0  0  0
   59.8578   33.1540   33.7723 C   0  0  0  0  0  0  0  0  0  0  0  0
   59.0665   34.0263   33.1750 N   0  0  0  0  0  0  0  0  0  0  0  0
   61.3673   32.9765   35.8061 C   0  0  0  0  0  0  0  0  0  0  0  0
   61.1751   31.4571   35.7145 C   0  0  0  0  0  0  0  0  0  0  0  0
   60.8130   30.9513   34.3860 N   0  0  0  0  0  0  0  0  0  0  0  0
   60.1670   31.7661   33.3714 C   0  0  0  0  0  0  0  0  0  0  0  0
   62.3253   29.3550   36.1667 N   0  0  0  0  0  0  0  0  0  0  0  0
   61.6773   28.7680   34.9940 C   0  0  0  0  0  0  0  0  0  0  0  0
   61.0344   29.6664   34.0347 C   0  0  0  0  0  0  0  0  0  0  0  0
   63.2305   28.5558   36.9720 C   0  0  0  0  0  0  0  0  0  0  0  0
   60.7382   29.2006   32.9638 O   0  0  0  0  0  0  0  0  0  0  0  0
   62.1005   30.6111   36.5304 C   0  0  0  0  0  0  0  0  0  0  0  0
   62.6121   31.1664   37.5164 O   0  0  0  0  0  0  0  0  0  0  0  0
   61.0037   31.9279   32.0546 C   0  0  0  0  0  0  0  0  0  0  0  0
   62.2964   32.4259   32.0732 C   0  0  0  0  0  0  0  0  0  0  0  0
   62.9885   32.5451   30.8660 C   0  0  0  0  0  0  0  0  0  0  0  0
   62.4276   32.1894   29.6800 C   0  0  0  0  0  0  0  0  0  0  0  0
   61.1469   31.6915   29.6040 C   0  0  0  0  0  0  0  0  0  0  0  0
   60.4582   31.5680   30.7908 C   0  0  0  0  0  0  0  0  0  0  0  0
   64.2673   33.0166   30.7058 O   0  0  0  0  0  0  0  0  0  0  0  0
   64.5230   32.6230   29.3251 C   0  0  0  0  0  0  0  0  0  0  0  0
   63.2927   32.3974   28.6456 O   0  0  0  0  0  0  0  0  0  0  0  0
  1  6  2  0  0  0
  1  2  1  0  0  0
  2  3  1  0  0  0
  3  4  2  0  0  0
  4  5  1  0  0  0
  5  6  1  0  0  0
  6  7  1  0  0  0
  7  8  2  0  0  0
  7 10  1  0  0  0
  8  9  1  0  0  0
  8 13  1  0  0  0
  5  9  2  0  0  0
 10 11  1  0  0  0
 11 12  1  0  0  0
 12 16  1  0  0  0
 12 13  1  0  0  0
 13 21  1  0  0  0
 14 17  1  0  0  0
 14 19  1  0  0  0
 14 15  1  0  0  0
 15 16  1  0  0  0
 16 18  2  0  0  0
 21 22  2  0  0  0
 21 26  1  0  0  0
 22 23  1  0  0  0
 23 24  2  0  0  0
 24 29  1  0  0  0
 24 25  1  0  0  0
 25 26  2  0  0  0
 23 27  1  0  0  0
 27 28  1  0  0  0
 28 29  1  0  0  0
 11 19  1  0  0  0
 19 20  2  0  0  0
M  END
> <minimizedAffinity>
-4.90260

$$$$
