1XOZ


 29 34  0  0  0  0  0  0  0  0999 V2000
   24.1548   18.1365   20.8782 C   0  0  0  0  0  0  0  0  0  0  0  0
   24.9797   17.4745   19.9835 C   0  0  0  0  0  0  0  0  0  0  0  0
   25.3140   17.9495   18.6867 C   0  0  0  0  0  0  0  0  0  0  0  0
   24.7869   19.1810   18.2356 C   0  0  0  0  0  0  0  0  0  0  0  0
   23.9622   19.8475   19.1257 C   0  0  0  0  0  0  0  0  0  0  0  0
   23.6473   19.3580   20.4019 C   0  0  0  0  0  0  0  0  0  0  0  0
   22.7531   20.3459   21.0228 C   0  0  0  0  0  0  0  0  0  0  0  0
   22.6096   21.3218   20.0910 C   0  0  0  0  0  0  0  0  0  0  0  0
   23.3022   21.0405   19.0025 N   0  0  0  0  0  0  0  0  0  0  0  0
   22.1039   20.3420   22.3780 C   0  0  0  0  0  0  0  0  0  0  0  0
   21.7770   21.7719   22.8280 C   0  0  0  0  0  0  0  0  0  0  0  0
   21.3854   22.6915   21.7543 N   0  0  0  0  0  0  0  0  0  0  0  0
   21.7627   22.5011   20.3643 C   0  0  0  0  0  0  0  0  0  0  0  0
   20.3482   23.0110   24.3674 N   0  0  0  0  0  0  0  0  0  0  0  0
   20.2426   24.0839   23.3787 C   0  0  0  0  0  0  0  0  0  0  0  0
   20.6652   23.8057   22.0059 C   0  0  0  0  0  0  0  0  0  0  0  0
   19.6659   23.1295   25.6429 C   0  0  0  0  0  0  0  0  0  0  0  0
   20.3360   24.5995   21.1614 O   0  0  0  0  0  0  0  0  0  0  0  0
   21.0677   21.9202   24.1368 C   0  0  0  0  0  0  0  0  0  0  0  0
   21.2034   20.9782   24.9345 O   0  0  0  0  0  0  0  0  0  0  0  0
   20.5454   22.3293   19.3902 C   0  0  0  0  0  0  0  0  0  0  0  0
   20.4537   23.0489   18.2099 C   0  0  0  0  0  0  0  0  0  0  0  0
   19.3442   22.8499   17.3855 C   0  0  0  0  0  0  0  0  0  0  0  0
   18.3564   21.9749   17.7117 C   0  0  0  0  0  0  0  0  0  0  0  0
   18.3961   21.2364   18.8724 C   0  0  0  0  0  0  0  0  0  0  0  0
   19.4890   21.4247   19.6899 C   0  0  0  0  0  0  0  0  0  0  0  0
   19.0976   23.4765   16.1896 O   0  0  0  0  0  0  0  0  0  0  0  0
   17.9998   22.6600   15.6849 C   0  0  0  0  0  0  0  0  0  0  0  0
   17.3824   21.9552   16.7565 O   0  0  0  0  0  0  0  0  0  0  0  0
  1  6  2  0  0  0
  1  2  1  0  0  0
  2  3  1  0  0  0
  3  4  2  0  0  0
  4  5  1  0  0  0
  5  6  1  0  0  0
  6  7  1  0  0  0
  7  8  2  0  0  0
  7 10  1  0  0  0
  8  9  1  0  0  0
  8 13  1  0  0  0
  5  9  2  0  0  0
 10 11  1  0  0  0
 11 12  1  0  0  0
 12 16  1  0  0  0
 12 13  1  0  0  0
 13 21  1  0  0  0
 14 17  1  0  0  0
 14 19  1  0  0  0
 14 15  1  0  0  0
 15 16  1  0  0  0
 16 18  2  0  0  0
 21 22  2  0  0  0
 21 26  1  0  0  0
 22 23  1  0  0  0
 23 24  2  0  0  0
 24 29  1  0  0  0
 24 25  1  0  0  0
 25 26  2  0  0  0
 23 27  1  0  0  0
 27 28  1  0  0  0
 28 29  1  0  0  0
 11 19  1  0  0  0
 19 20  2  0  0  0
M  END
> <minimizedAffinity>
-6.69445

$$$$
1XOZ


 29 34  0  0  0  0  0  0  0  0999 V2000
   24.4712   19.2219   18.8913 C   0  0  0  0  0  0  0  0  0  0  0  0
   25.3291   18.2610   19.4013 C   0  0  0  0  0  0  0  0  0  0  0  0
   25.0641   17.4663   20.5490 C   0  0  0  0  0  0  0  0  0  0  0  0
   23.8504   17.6371   21.2529 C   0  0  0  0  0  0  0  0  0  0  0  0
   22.9887   18.5957   20.7476 C   0  0  0  0  0  0  0  0  0  0  0  0
   23.2727   19.3678   19.6115 C   0  0  0  0  0  0  0  0  0  0  0  0
   22.1211   20.2589   19.4097 C   0  0  0  0  0  0  0  0  0  0  0  0
   21.2631   19.9548   20.4159 C   0  0  0  0  0  0  0  0  0  0  0  0
   21.7562   19.0009   21.1844 N   0  0  0  0  0  0  0  0  0  0  0  0
   21.8797   21.2986   18.3519 C   0  0  0  0  0  0  0  0  0  0  0  0
   20.3767   21.5396   18.1598 C   0  0  0  0  0  0  0  0  0  0  0  0
   19.5652   21.4310   19.3771 N   0  0  0  0  0  0  0  0  0  0  0  0
   19.9727   20.6633   20.5412 C   0  0  0  0  0  0  0  0  0  0  0  0
   18.8010   23.1870   17.2941 N   0  0  0  0  0  0  0  0  0  0  0  0
   17.8588   22.8151   18.3495 C   0  0  0  0  0  0  0  0  0  0  0  0
   18.3556   22.0232   19.4750 C   0  0  0  0  0  0  0  0  0  0  0  0
   18.4455   24.2145   16.3326 C   0  0  0  0  0  0  0  0  0  0  0  0
   17.6455   21.9475   20.4453 O   0  0  0  0  0  0  0  0  0  0  0  0
   19.9846   22.5986   17.1787 C   0  0  0  0  0  0  0  0  0  0  0  0
   20.8256   22.8624   16.3038 O   0  0  0  0  0  0  0  0  0  0  0  0
   20.1336   21.5190   21.8458 C   0  0  0  0  0  0  0  0  0  0  0  0
   19.3829   21.2591   22.9809 C   0  0  0  0  0  0  0  0  0  0  0  0
   19.5736   22.0576   24.1106 C   0  0  0  0  0  0  0  0  0  0  0  0
   20.4702   23.0793   24.1233 C   0  0  0  0  0  0  0  0  0  0  0  0
   21.2397   23.3823   23.0233 C   0  0  0  0  0  0  0  0  0  0  0  0
   21.0598   22.5973   21.9055 C   0  0  0  0  0  0  0  0  0  0  0  0
   18.9176   21.9383   25.3102 O   0  0  0  0  0  0  0  0  0  0  0  0
   19.7341   22.8109   26.1459 C   0  0  0  0  0  0  0  0  0  0  0  0
   20.4762   23.7125   25.3318 O   0  0  0  0  0  0  0  0  0  0  0  0
  1  6  2  0  0  0
  1  2  1  0  0  0
  2  3  1  0  0  0
  3  4  2  0  0  0
  4  5  1  0  0  0
  5  6  1  0  0  0
  6  7  1  0  0  0
  7  8  2  0  0  0
  7 10  1  0  0  0
  8  9  1  0  0  0
  8 13  1  0  0  0
  5  9  2  0  0  0
 10 11  1  0  0  0
 11 12  1  0  0  0
 12 16  1  0  0  0
 12 13  1  0  0  0
 13 21  1  0  0  0
 14 17  1  0  0  0
 14 19  1  0  0  0
 14 15  1  0  0  0
 15 16  1  0  0  0
 16 18  2  0  0  0
 21 22  2  0  0  0
 21 26  1  0  0  0
 22 23  1  0  0  0
 23 24  2  0  0  0
 24 29  1  0  0  0
 24 25  1  0  0  0
 25 26  2  0  0  0
 23 27  1  0  0  0
 27 28  1  0  0  0
 28 29  1  0  0  0
 11 19  1  0  0  0
 19 20  2  0  0  0
M  END
> <minimizedAffinity>
-6.26230

$$$$
1XOZ


 29 34  0  0  0  0  0  0  0  0999 V2000
   20.2564   23.2237   24.5562 C   0  0  0  0  0  0  0  0  0  0  0  0
   20.0551   24.5626   24.2628 C   0  0  0  0  0  0  0  0  0  0  0  0
   19.8035   25.0775   22.9626 C   0  0  0  0  0  0  0  0  0  0  0  0
   19.7486   24.1954   21.8596 C   0  0  0  0  0  0  0  0  0  0  0  0
   19.9485   22.8559   22.1467 C   0  0  0  0  0  0  0  0  0  0  0  0
   20.1947   22.3715   23.4399 C   0  0  0  0  0  0  0  0  0  0  0  0
   20.3529   20.9148   23.3205 C   0  0  0  0  0  0  0  0  0  0  0  0
   20.1922   20.6528   21.9989 C   0  0  0  0  0  0  0  0  0  0  0  0
   19.9589   21.7628   21.3227 N   0  0  0  0  0  0  0  0  0  0  0  0
   20.6331   19.8851   24.3784 C   0  0  0  0  0  0  0  0  0  0  0  0
   20.1292   18.5040   23.9394 C   0  0  0  0  0  0  0  0  0  0  0  0
   20.2358   18.2269   22.5028 N   0  0  0  0  0  0  0  0  0  0  0  0
   20.2882   19.2686   21.4915 C   0  0  0  0  0  0  0  0  0  0  0  0
   20.4353   16.1268   24.3886 N   0  0  0  0  0  0  0  0  0  0  0  0
   20.2069   15.8471   22.9711 C   0  0  0  0  0  0  0  0  0  0  0  0
   20.2596   16.9634   22.0268 C   0  0  0  0  0  0  0  0  0  0  0  0
   20.7007   15.0373   25.3101 C   0  0  0  0  0  0  0  0  0  0  0  0
   20.3275   16.6861   20.8563 O   0  0  0  0  0  0  0  0  0  0  0  0
   20.3964   17.3630   24.8693 C   0  0  0  0  0  0  0  0  0  0  0  0
   20.5745   17.6670   26.0601 O   0  0  0  0  0  0  0  0  0  0  0  0
   21.6053   19.2660   20.6399 C   0  0  0  0  0  0  0  0  0  0  0  0
   21.5772   19.1358   19.2609 C   0  0  0  0  0  0  0  0  0  0  0  0
   22.7853   19.1411   18.5602 C   0  0  0  0  0  0  0  0  0  0  0  0
   23.9811   19.2673   19.1941 C   0  0  0  0  0  0  0  0  0  0  0  0
   24.0667   19.3975   20.5615 C   0  0  0  0  0  0  0  0  0  0  0  0
   22.8792   19.3961   21.2600 C   0  0  0  0  0  0  0  0  0  0  0  0
   22.9369   19.0230   17.2013 O   0  0  0  0  0  0  0  0  0  0  0  0
   24.3399   19.3946   17.0587 C   0  0  0  0  0  0  0  0  0  0  0  0
   25.0142   19.2434   18.3031 O   0  0  0  0  0  0  0  0  0  0  0  0
  1  6  2  0  0  0
  1  2  1  0  0  0
  2  3  1  0  0  0
  3  4  2  0  0  0
  4  5  1  0  0  0
  5  6  1  0  0  0
  6  7  1  0  0  0
  7  8  2  0  0  0
  7 10  1  0  0  0
  8  9  1  0  0  0
  8 13  1  0  0  0
  5  9  2  0  0  0
 10 11  1  0  0  0
 11 12  1  0  0  0
 12 16  1  0  0  0
 12 13  1  0  0  0
 13 21  1  0  0  0
 14 17  1  0  0  0
 14 19  1  0  0  0
 14 15  1  0  0  0
 15 16  1  0  0  0
 16 18  2  0  0  0
 21 22  2  0  0  0
 21 26  1  0  0  0
 22 23  1  0  0  0
 23 24  2  0  0  0
 24 29  1  0  0  0
 24 25  1  0  0  0
 25 26  2  0  0  0
 23 27  1  0  0  0
 27 28  1  0  0  0
 28 29  1  0  0  0
 11 19  1  0  0  0
 19 20  2  0  0  0
M  END
> <minimizedAffinity>
-6.22849

$$$$
1XOZ


 29 34  0  0  0  0  0  0  0  0999 V2000
   18.5381   26.5566   24.3189 C   0  0  0  0  0  0  0  0  0  0  0  0
   18.3307   27.2274   25.5131 C   0  0  0  0  0  0  0  0  0  0  0  0
   18.7793   26.7762   26.7837 C   0  0  0  0  0  0  0  0  0  0  0  0
   19.4905   25.5587   26.8824 C   0  0  0  0  0  0  0  0  0  0  0  0
   19.7013   24.8840   25.6920 C   0  0  0  0  0  0  0  0  0  0  0  0
   19.2489   25.3506   24.4490 C   0  0  0  0  0  0  0  0  0  0  0  0
   19.6665   24.3571   23.4491 C   0  0  0  0  0  0  0  0  0  0  0  0
   20.3188   23.4012   24.1575 C   0  0  0  0  0  0  0  0  0  0  0  0
   20.3421   23.7001   25.4434 N   0  0  0  0  0  0  0  0  0  0  0  0
   19.4528   24.3368   21.9619 C   0  0  0  0  0  0  0  0  0  0  0  0
   20.5268   23.4869   21.2702 C   0  0  0  0  0  0  0  0  0  0  0  0
   20.9858   22.3192   22.0301 N   0  0  0  0  0  0  0  0  0  0  0  0
   20.8881   22.2202   23.4763 C   0  0  0  0  0  0  0  0  0  0  0  0
   20.9628   22.2724   19.2011 N   0  0  0  0  0  0  0  0  0  0  0  0
   21.7113   21.2743   19.9648 C   0  0  0  0  0  0  0  0  0  0  0  0
   21.5655   21.2628   21.4206 C   0  0  0  0  0  0  0  0  0  0  0  0
   20.8266   22.1336   17.7627 C   0  0  0  0  0  0  0  0  0  0  0  0
   21.9746   20.2907   22.0030 O   0  0  0  0  0  0  0  0  0  0  0  0
   20.4046   23.3233   19.7882 C   0  0  0  0  0  0  0  0  0  0  0  0
   19.7634   24.2080   19.1981 O   0  0  0  0  0  0  0  0  0  0  0  0
   20.0000   21.0279   23.9760 C   0  0  0  0  0  0  0  0  0  0  0  0
   20.4535   20.1387   24.9368 C   0  0  0  0  0  0  0  0  0  0  0  0
   19.6139   19.0979   25.3395 C   0  0  0  0  0  0  0  0  0  0  0  0
   18.3712   18.9349   24.8133 C   0  0  0  0  0  0  0  0  0  0  0  0
   17.8720   19.7874   23.8550 C   0  0  0  0  0  0  0  0  0  0  0  0
   18.6930   20.8187   23.4544 C   0  0  0  0  0  0  0  0  0  0  0  0
   19.9038   18.1350   26.2734 O   0  0  0  0  0  0  0  0  0  0  0  0
   18.5821   17.5511   26.4701 C   0  0  0  0  0  0  0  0  0  0  0  0
   17.7444   17.8531   25.3595 O   0  0  0  0  0  0  0  0  0  0  0  0
  1  6  2  0  0  0
  1  2  1  0  0  0
  2  3  1  0  0  0
  3  4  2  0  0  0
  4  5  1  0  0  0
  5  6  1  0  0  0
  6  7  1  0  0  0
  7  8  2  0  0  0
  7 10  1  0  0  0
  8  9  1  0  0  0
  8 13  1  0  0  0
  5  9  2  0  0  0
 10 11  1  0  0  0
 11 12  1  0  0  0
 12 16  1  0  0  0
 12 13  1  0  0  0
 13 21  1  0  0  0
 14 17  1  0  0  0
 14 19  1  0  0  0
 14 15  1  0  0  0
 15 16  1  0  0  0
 16 18  2  0  0  0
 21 22  2  0  0  0
 21 26  1  0  0  0
 22 23  1  0  0  0
 23 24  2  0  0  0
 24 29  1  0  0  0
 24 25  1  0  0  0
 25 26  2  0  0  0
 23 27  1  0  0  0
 27 28  1  0  0  0
 28 29  1  0  0  0
 11 19  1  0  0  0
 19 20  2  0  0  0
M  END
> <minimizedAffinity>
-6.12252

$$$$
1XOZ


 29 34  0  0  0  0  0  0  0  0999 V2000
   19.5819   24.6942   16.5240 C   0  0  0  0  0  0  0  0  0  0  0  0
   19.3975   24.6733   15.1511 C   0  0  0  0  0  0  0  0  0  0  0  0
   19.3502   23.4950   14.3584 C   0  0  0  0  0  0  0  0  0  0  0  0
   19.5001   22.2315   14.9739 C   0  0  0  0  0  0  0  0  0  0  0  0
   19.6842   22.2460   16.3460 C   0  0  0  0  0  0  0  0  0  0  0  0
   19.7265   23.4233   17.1073 C   0  0  0  0  0  0  0  0  0  0  0  0
   19.9395   23.0143   18.5032 C   0  0  0  0  0  0  0  0  0  0  0  0
   20.0052   21.6596   18.4645 C   0  0  0  0  0  0  0  0  0  0  0  0
   19.8579   21.2151   17.2298 N   0  0  0  0  0  0  0  0  0  0  0  0
   20.0680   23.8513   19.7447 C   0  0  0  0  0  0  0  0  0  0  0  0
   19.6787   23.0416   20.9885 C   0  0  0  0  0  0  0  0  0  0  0  0
   20.0272   21.6175   20.9422 N   0  0  0  0  0  0  0  0  0  0  0  0
   20.2186   20.8832   19.7032 C   0  0  0  0  0  0  0  0  0  0  0  0
   19.9673   23.0013   23.4095 N   0  0  0  0  0  0  0  0  0  0  0  0
   19.9825   21.5392   23.3661 C   0  0  0  0  0  0  0  0  0  0  0  0
   20.1613   20.8859   22.0692 C   0  0  0  0  0  0  0  0  0  0  0  0
   20.1052   23.6913   24.6789 C   0  0  0  0  0  0  0  0  0  0  0  0
   20.4279   19.7110   22.0815 O   0  0  0  0  0  0  0  0  0  0  0  0
   19.8183   23.7288   22.3099 C   0  0  0  0  0  0  0  0  0  0  0  0
   19.7902   24.9700   22.2790 O   0  0  0  0  0  0  0  0  0  0  0  0
   21.6575   20.2828   19.5327 C   0  0  0  0  0  0  0  0  0  0  0  0
   21.8533   18.9689   19.1397 C   0  0  0  0  0  0  0  0  0  0  0  0
   23.1600   18.4945   19.0059 C   0  0  0  0  0  0  0  0  0  0  0  0
   24.2382   19.2846   19.2529 C   0  0  0  0  0  0  0  0  0  0  0  0
   24.1010   20.5958   19.6479 C   0  0  0  0  0  0  0  0  0  0  0  0
   22.8151   21.0724   19.7794 C   0  0  0  0  0  0  0  0  0  0  0  0
   23.5301   17.2280   18.6287 O   0  0  0  0  0  0  0  0  0  0  0  0
   24.9535   17.4303   18.3843 C   0  0  0  0  0  0  0  0  0  0  0  0
   25.4030   18.6015   19.0570 O   0  0  0  0  0  0  0  0  0  0  0  0
  1  6  2  0  0  0
  1  2  1  0  0  0
  2  3  1  0  0  0
  3  4  2  0  0  0
  4  5  1  0  0  0
  5  6  1  0  0  0
  6  7  1  0  0  0
  7  8  2  0  0  0
  7 10  1  0  0  0
  8  9  1  0  0  0
  8 13  1  0  0  0
  5  9  2  0  0  0
 10 11  1  0  0  0
 11 12  1  0  0  0
 12 16  1  0  0  0
 12 13  1  0  0  0
 13 21  1  0  0  0
 14 17  1  0  0  0
 14 19  1  0  0  0
 14 15  1  0  0  0
 15 16  1  0  0  0
 16 18  2  0  0  0
 21 22  2  0  0  0
 21 26  1  0  0  0
 22 23  1  0  0  0
 23 24  2  0  0  0
 24 29  1  0  0  0
 24 25  1  0  0  0
 25 26  2  0  0  0
 23 27  1  0  0  0
 27 28  1  0  0  0
 28 29  1  0  0  0
 11 19  1  0  0  0
 19 20  2  0  0  0
M  END
> <minimizedAffinity>
-6.00628

$$$$
