1XOZ


 29 34  0  0  0  0  0  0  0  0999 V2000
   43.8676   37.4765   12.8246 C   0  0  0  0  0  0  0  0  0  0  0  0
   42.9571   38.0913   11.9807 C   0  0  0  0  0  0  0  0  0  0  0  0
   42.7616   37.7515   10.6149 C   0  0  0  0  0  0  0  0  0  0  0  0
   43.5324   36.7190   10.0339 C   0  0  0  0  0  0  0  0  0  0  0  0
   44.4438   36.1004   10.8726 C   0  0  0  0  0  0  0  0  0  0  0  0
   44.6179   36.4535   12.2189 C   0  0  0  0  0  0  0  0  0  0  0  0
   45.6684   35.5741   12.7521 C   0  0  0  0  0  0  0  0  0  0  0  0
   46.0279   34.7859   11.7078 C   0  0  0  0  0  0  0  0  0  0  0  0
   45.3273   35.0835   10.6289 N   0  0  0  0  0  0  0  0  0  0  0  0
   46.2626   35.5074   14.1308 C   0  0  0  0  0  0  0  0  0  0  0  0
   46.8484   34.1157   14.4032 C   0  0  0  0  0  0  0  0  0  0  0  0
   47.4445   33.4494   13.2402 N   0  0  0  0  0  0  0  0  0  0  0  0
   47.0800   33.7612   11.8688 C   0  0  0  0  0  0  0  0  0  0  0  0
   48.4439   32.9624   15.8422 N   0  0  0  0  0  0  0  0  0  0  0  0
   48.7869   32.0809   14.7264 C   0  0  0  0  0  0  0  0  0  0  0  0
   48.3603   32.4670   13.3812 C   0  0  0  0  0  0  0  0  0  0  0  0
   49.0969   32.7944   17.1275 C   0  0  0  0  0  0  0  0  0  0  0  0
   48.8637   31.8784   12.4584 O   0  0  0  0  0  0  0  0  0  0  0  0
   47.5327   33.9191   15.7188 C   0  0  0  0  0  0  0  0  0  0  0  0
   47.1914   34.6949   16.6265 O   0  0  0  0  0  0  0  0  0  0  0  0
   48.2695   34.2971   10.9982 C   0  0  0  0  0  0  0  0  0  0  0  0
   48.8187   35.5506   11.2134 C   0  0  0  0  0  0  0  0  0  0  0  0
   49.8768   35.9692   10.4037 C   0  0  0  0  0  0  0  0  0  0  0  0
   50.3764   35.1830    9.4138 C   0  0  0  0  0  0  0  0  0  0  0  0
   49.8672   33.9308    9.1556 C   0  0  0  0  0  0  0  0  0  0  0  0
   48.8249   33.5091    9.9519 C   0  0  0  0  0  0  0  0  0  0  0  0
   50.5321   37.1726   10.4807 O   0  0  0  0  0  0  0  0  0  0  0  0
   51.6808   36.9034    9.6236 C   0  0  0  0  0  0  0  0  0  0  0  0
   51.4004   35.8058    8.7616 O   0  0  0  0  0  0  0  0  0  0  0  0
  1  6  2  0  0  0
  1  2  1  0  0  0
  2  3  1  0  0  0
  3  4  2  0  0  0
  4  5  1  0  0  0
  5  6  1  0  0  0
  6  7  1  0  0  0
  7  8  2  0  0  0
  7 10  1  0  0  0
  8  9  1  0  0  0
  8 13  1  0  0  0
  5  9  2  0  0  0
 10 11  1  0  0  0
 11 12  1  0  0  0
 12 16  1  0  0  0
 12 13  1  0  0  0
 13 21  1  0  0  0
 14 17  1  0  0  0
 14 19  1  0  0  0
 14 15  1  0  0  0
 15 16  1  0  0  0
 16 18  2  0  0  0
 21 22  2  0  0  0
 21 26  1  0  0  0
 22 23  1  0  0  0
 23 24  2  0  0  0
 24 29  1  0  0  0
 24 25  1  0  0  0
 25 26  2  0  0  0
 23 27  1  0  0  0
 27 28  1  0  0  0
 28 29  1  0  0  0
 11 19  1  0  0  0
 19 20  2  0  0  0
M  END
> <minimizedAffinity>
-12.42714

$$$$
