1XOZ


 29 34  0  0  0  0  0  0  0  0999 V2000
   18.5461   42.1781    9.0324 C   0  0  0  0  0  0  0  0  0  0  0  0
   19.2183   42.7158    7.9469 C   0  0  0  0  0  0  0  0  0  0  0  0
   19.7999   44.0118    7.9158 C   0  0  0  0  0  0  0  0  0  0  0  0
   19.7075   44.8473    9.0521 C   0  0  0  0  0  0  0  0  0  0  0  0
   19.0373   44.3152   10.1403 C   0  0  0  0  0  0  0  0  0  0  0  0
   18.4717   43.0316   10.1471 C   0  0  0  0  0  0  0  0  0  0  0  0
   17.8565   42.8498   11.4697 C   0  0  0  0  0  0  0  0  0  0  0  0
   18.0982   44.0101   12.1303 C   0  0  0  0  0  0  0  0  0  0  0  0
   18.7760   44.8523   11.3721 N   0  0  0  0  0  0  0  0  0  0  0  0
   17.1099   41.6734   12.0328 C   0  0  0  0  0  0  0  0  0  0  0  0
   17.1811   41.6678   13.5655 C   0  0  0  0  0  0  0  0  0  0  0  0
   17.1838   42.9921   14.1964 N   0  0  0  0  0  0  0  0  0  0  0  0
   17.6177   44.1994   13.5145 C   0  0  0  0  0  0  0  0  0  0  0  0
   16.0453   40.7700   15.5277 N   0  0  0  0  0  0  0  0  0  0  0  0
   16.3573   42.0026   16.2510 C   0  0  0  0  0  0  0  0  0  0  0  0
   16.8065   43.1632   15.4816 C   0  0  0  0  0  0  0  0  0  0  0  0
   15.3112   39.7065   16.1885 C   0  0  0  0  0  0  0  0  0  0  0  0
   16.8094   44.2264   16.0483 O   0  0  0  0  0  0  0  0  0  0  0  0
   16.4270   40.5851   14.2704 C   0  0  0  0  0  0  0  0  0  0  0  0
   16.2007   39.5622   13.6036 O   0  0  0  0  0  0  0  0  0  0  0  0
   16.5024   45.2944   13.3836 C   0  0  0  0  0  0  0  0  0  0  0  0
   16.7135   46.5983   13.8015 C   0  0  0  0  0  0  0  0  0  0  0  0
   15.6799   47.5264   13.6574 C   0  0  0  0  0  0  0  0  0  0  0  0
   14.4780   47.1835   13.1229 C   0  0  0  0  0  0  0  0  0  0  0  0
   14.2142   45.9028   12.6938 C   0  0  0  0  0  0  0  0  0  0  0  0
   15.2297   44.9817   12.8298 C   0  0  0  0  0  0  0  0  0  0  0  0
   15.7204   48.8501   14.0173 O   0  0  0  0  0  0  0  0  0  0  0  0
   14.5123   49.3389   13.3630 C   0  0  0  0  0  0  0  0  0  0  0  0
   13.6328   48.2540   13.0876 O   0  0  0  0  0  0  0  0  0  0  0  0
  1  6  2  0  0  0
  1  2  1  0  0  0
  2  3  1  0  0  0
  3  4  2  0  0  0
  4  5  1  0  0  0
  5  6  1  0  0  0
  6  7  1  0  0  0
  7  8  2  0  0  0
  7 10  1  0  0  0
  8  9  1  0  0  0
  8 13  1  0  0  0
  5  9  2  0  0  0
 10 11  1  0  0  0
 11 12  1  0  0  0
 12 16  1  0  0  0
 12 13  1  0  0  0
 13 21  1  0  0  0
 14 17  1  0  0  0
 14 19  1  0  0  0
 14 15  1  0  0  0
 15 16  1  0  0  0
 16 18  2  0  0  0
 21 22  2  0  0  0
 21 26  1  0  0  0
 22 23  1  0  0  0
 23 24  2  0  0  0
 24 29  1  0  0  0
 24 25  1  0  0  0
 25 26  2  0  0  0
 23 27  1  0  0  0
 27 28  1  0  0  0
 28 29  1  0  0  0
 11 19  1  0  0  0
 19 20  2  0  0  0
M  END
> <minimizedAffinity>
-5.97949

$$$$
1XOZ


 29 34  0  0  0  0  0  0  0  0999 V2000
   15.6168   40.5737   15.7114 C   0  0  0  0  0  0  0  0  0  0  0  0
   16.1871   39.3111   15.7205 C   0  0  0  0  0  0  0  0  0  0  0  0
   17.3960   38.9640   15.0596 C   0  0  0  0  0  0  0  0  0  0  0  0
   18.0992   39.9467   14.3262 C   0  0  0  0  0  0  0  0  0  0  0  0
   17.5344   41.2106   14.3138 C   0  0  0  0  0  0  0  0  0  0  0  0
   16.3392   41.5291   14.9754 C   0  0  0  0  0  0  0  0  0  0  0  0
   16.0820   42.9533   14.7173 C   0  0  0  0  0  0  0  0  0  0  0  0
   17.1184   43.3609   13.9422 C   0  0  0  0  0  0  0  0  0  0  0  0
   17.9539   42.3651   13.7097 N   0  0  0  0  0  0  0  0  0  0  0  0
   14.9475   43.8267   15.1736 C   0  0  0  0  0  0  0  0  0  0  0  0
   15.3721   45.3010   15.1966 C   0  0  0  0  0  0  0  0  0  0  0  0
   16.3158   45.6966   14.1455 N   0  0  0  0  0  0  0  0  0  0  0  0
   17.2002   44.7598   13.4740 C   0  0  0  0  0  0  0  0  0  0  0  0
   14.4461   47.5567   15.1706 N   0  0  0  0  0  0  0  0  0  0  0  0
   15.5947   48.0005   14.3809 C   0  0  0  0  0  0  0  0  0  0  0  0
   16.4417   46.9837   13.7570 C   0  0  0  0  0  0  0  0  0  0  0  0
   13.4121   48.5043   15.5441 C   0  0  0  0  0  0  0  0  0  0  0  0
   17.2145   47.3595   12.9126 O   0  0  0  0  0  0  0  0  0  0  0  0
   14.3222   46.2981   15.5723 C   0  0  0  0  0  0  0  0  0  0  0  0
   13.3778   45.8592   16.2489 O   0  0  0  0  0  0  0  0  0  0  0  0
   16.9655   44.6575   11.9266 C   0  0  0  0  0  0  0  0  0  0  0  0
   18.0225   44.5382   11.0390 C   0  0  0  0  0  0  0  0  0  0  0  0
   17.7467   44.4511    9.6727 C   0  0  0  0  0  0  0  0  0  0  0  0
   16.4746   44.4830    9.1947 C   0  0  0  0  0  0  0  0  0  0  0  0
   15.3884   44.6023   10.0314 C   0  0  0  0  0  0  0  0  0  0  0  0
   15.6518   44.6858   11.3811 C   0  0  0  0  0  0  0  0  0  0  0  0
   18.6691   44.3301    8.6637 O   0  0  0  0  0  0  0  0  0  0  0  0
   17.7956   43.9894    7.5467 C   0  0  0  0  0  0  0  0  0  0  0  0
   16.4586   44.3845    7.8339 O   0  0  0  0  0  0  0  0  0  0  0  0
  1  6  2  0  0  0
  1  2  1  0  0  0
  2  3  1  0  0  0
  3  4  2  0  0  0
  4  5  1  0  0  0
  5  6  1  0  0  0
  6  7  1  0  0  0
  7  8  2  0  0  0
  7 10  1  0  0  0
  8  9  1  0  0  0
  8 13  1  0  0  0
  5  9  2  0  0  0
 10 11  1  0  0  0
 11 12  1  0  0  0
 12 16  1  0  0  0
 12 13  1  0  0  0
 13 21  1  0  0  0
 14 17  1  0  0  0
 14 19  1  0  0  0
 14 15  1  0  0  0
 15 16  1  0  0  0
 16 18  2  0  0  0
 21 22  2  0  0  0
 21 26  1  0  0  0
 22 23  1  0  0  0
 23 24  2  0  0  0
 24 29  1  0  0  0
 24 25  1  0  0  0
 25 26  2  0  0  0
 23 27  1  0  0  0
 27 28  1  0  0  0
 28 29  1  0  0  0
 11 19  1  0  0  0
 19 20  2  0  0  0
M  END
> <minimizedAffinity>
-5.92908

$$$$
1XOZ


 29 34  0  0  0  0  0  0  0  0999 V2000
   19.6171   43.5946    6.3416 C   0  0  0  0  0  0  0  0  0  0  0  0
   20.6369   44.3751    5.8221 C   0  0  0  0  0  0  0  0  0  0  0  0
   21.4481   45.2589    6.5835 C   0  0  0  0  0  0  0  0  0  0  0  0
   21.2317   45.3834    7.9747 C   0  0  0  0  0  0  0  0  0  0  0  0
   20.2140   44.6054    8.4998 C   0  0  0  0  0  0  0  0  0  0  0  0
   19.4267   43.7391    7.7270 C   0  0  0  0  0  0  0  0  0  0  0  0
   18.4692   43.1077    8.6465 C   0  0  0  0  0  0  0  0  0  0  0  0
   18.7545   43.6341    9.8641 C   0  0  0  0  0  0  0  0  0  0  0  0
   19.7551   44.4922    9.7845 N   0  0  0  0  0  0  0  0  0  0  0  0
   17.3886   42.1003    8.3716 C   0  0  0  0  0  0  0  0  0  0  0  0
   17.0612   41.2957    9.6363 C   0  0  0  0  0  0  0  0  0  0  0  0
   17.1599   42.0420   10.8954 N   0  0  0  0  0  0  0  0  0  0  0  0
   17.9811   43.2297   11.0561 C   0  0  0  0  0  0  0  0  0  0  0  0
   15.3071   39.9206   10.6254 N   0  0  0  0  0  0  0  0  0  0  0  0
   15.6570   40.4520   11.9426 C   0  0  0  0  0  0  0  0  0  0  0  0
   16.5060   41.6418   12.0070 C   0  0  0  0  0  0  0  0  0  0  0  0
   14.2352   38.9507   10.4952 C   0  0  0  0  0  0  0  0  0  0  0  0
   16.5704   42.2102   13.0674 O   0  0  0  0  0  0  0  0  0  0  0  0
   15.9554   40.2940    9.5295 C   0  0  0  0  0  0  0  0  0  0  0  0
   15.7130   39.8769    8.3852 O   0  0  0  0  0  0  0  0  0  0  0  0
   17.1724   44.5177   11.4399 C   0  0  0  0  0  0  0  0  0  0  0  0
   17.5457   45.3171   12.5080 C   0  0  0  0  0  0  0  0  0  0  0  0
   16.7837   46.4510   12.7979 C   0  0  0  0  0  0  0  0  0  0  0  0
   15.6896   46.7863   12.0642 C   0  0  0  0  0  0  0  0  0  0  0  0
   15.2733   46.0267   10.9946 C   0  0  0  0  0  0  0  0  0  0  0  0
   16.0214   44.9079   10.7002 C   0  0  0  0  0  0  0  0  0  0  0  0
   17.0117   47.3453   13.8136 O   0  0  0  0  0  0  0  0  0  0  0  0
   16.1089   48.4226   13.4249 C   0  0  0  0  0  0  0  0  0  0  0  0
   15.1116   47.9279   12.5377 O   0  0  0  0  0  0  0  0  0  0  0  0
  1  6  2  0  0  0
  1  2  1  0  0  0
  2  3  1  0  0  0
  3  4  2  0  0  0
  4  5  1  0  0  0
  5  6  1  0  0  0
  6  7  1  0  0  0
  7  8  2  0  0  0
  7 10  1  0  0  0
  8  9  1  0  0  0
  8 13  1  0  0  0
  5  9  2  0  0  0
 10 11  1  0  0  0
 11 12  1  0  0  0
 12 16  1  0  0  0
 12 13  1  0  0  0
 13 21  1  0  0  0
 14 17  1  0  0  0
 14 19  1  0  0  0
 14 15  1  0  0  0
 15 16  1  0  0  0
 16 18  2  0  0  0
 21 22  2  0  0  0
 21 26  1  0  0  0
 22 23  1  0  0  0
 23 24  2  0  0  0
 24 29  1  0  0  0
 24 25  1  0  0  0
 25 26  2  0  0  0
 23 27  1  0  0  0
 27 28  1  0  0  0
 28 29  1  0  0  0
 11 19  1  0  0  0
 19 20  2  0  0  0
M  END
> <minimizedAffinity>
-5.75984

$$$$
1XOZ


 29 34  0  0  0  0  0  0  0  0999 V2000
   16.3281   46.8040   14.2346 C   0  0  0  0  0  0  0  0  0  0  0  0
   15.8626   48.1088   14.2434 C   0  0  0  0  0  0  0  0  0  0  0  0
   15.3161   48.7810   13.1172 C   0  0  0  0  0  0  0  0  0  0  0  0
   15.2240   48.1079   11.8777 C   0  0  0  0  0  0  0  0  0  0  0  0
   15.6872   46.8033   11.8629 C   0  0  0  0  0  0  0  0  0  0  0  0
   16.2222   46.1607   12.9891 C   0  0  0  0  0  0  0  0  0  0  0  0
   16.5964   44.8048   12.5618 C   0  0  0  0  0  0  0  0  0  0  0  0
   16.2627   44.7477   11.2478 C   0  0  0  0  0  0  0  0  0  0  0  0
   15.7399   45.8910   10.8437 N   0  0  0  0  0  0  0  0  0  0  0  0
   17.2152   43.6825   13.3465 C   0  0  0  0  0  0  0  0  0  0  0  0
   16.8798   42.3264   12.7119 C   0  0  0  0  0  0  0  0  0  0  0  0
   16.7893   42.3262   11.2478 N   0  0  0  0  0  0  0  0  0  0  0  0
   16.4995   43.5164   10.4666 C   0  0  0  0  0  0  0  0  0  0  0  0
   17.6444   40.0122   12.6336 N   0  0  0  0  0  0  0  0  0  0  0  0
   17.2319   39.9414   11.2320 C   0  0  0  0  0  0  0  0  0  0  0  0
   16.9413   41.1921   10.5307 C   0  0  0  0  0  0  0  0  0  0  0  0
   18.2359   38.8527   13.2757 C   0  0  0  0  0  0  0  0  0  0  0  0
   16.8576   41.1385    9.3300 O   0  0  0  0  0  0  0  0  0  0  0  0
   17.4830   41.1162   13.3518 C   0  0  0  0  0  0  0  0  0  0  0  0
   17.8048   41.2396   14.5449 O   0  0  0  0  0  0  0  0  0  0  0  0
   17.6381   43.9149    9.4642 C   0  0  0  0  0  0  0  0  0  0  0  0
   17.3882   44.0821    8.1118 C   0  0  0  0  0  0  0  0  0  0  0  0
   18.4454   44.4378    7.2715 C   0  0  0  0  0  0  0  0  0  0  0  0
   19.7067   44.6201    7.7442 C   0  0  0  0  0  0  0  0  0  0  0  0
   20.0109   44.4648    9.0774 C   0  0  0  0  0  0  0  0  0  0  0  0
   18.9728   44.1169    9.9137 C   0  0  0  0  0  0  0  0  0  0  0  0
   18.3729   44.6419    5.9163 O   0  0  0  0  0  0  0  0  0  0  0  0
   19.6701   45.2620    5.6727 C   0  0  0  0  0  0  0  0  0  0  0  0
   20.5639   44.9596    6.7385 O   0  0  0  0  0  0  0  0  0  0  0  0
  1  6  2  0  0  0
  1  2  1  0  0  0
  2  3  1  0  0  0
  3  4  2  0  0  0
  4  5  1  0  0  0
  5  6  1  0  0  0
  6  7  1  0  0  0
  7  8  2  0  0  0
  7 10  1  0  0  0
  8  9  1  0  0  0
  8 13  1  0  0  0
  5  9  2  0  0  0
 10 11  1  0  0  0
 11 12  1  0  0  0
 12 16  1  0  0  0
 12 13  1  0  0  0
 13 21  1  0  0  0
 14 17  1  0  0  0
 14 19  1  0  0  0
 14 15  1  0  0  0
 15 16  1  0  0  0
 16 18  2  0  0  0
 21 22  2  0  0  0
 21 26  1  0  0  0
 22 23  1  0  0  0
 23 24  2  0  0  0
 24 29  1  0  0  0
 24 25  1  0  0  0
 25 26  2  0  0  0
 23 27  1  0  0  0
 27 28  1  0  0  0
 28 29  1  0  0  0
 11 19  1  0  0  0
 19 20  2  0  0  0
M  END
> <minimizedAffinity>
-5.63452

$$$$
1XOZ


 29 34  0  0  0  0  0  0  0  0999 V2000
   17.8569   42.9297   11.2096 C   0  0  0  0  0  0  0  0  0  0  0  0
   16.9011   43.6002   11.9554 C   0  0  0  0  0  0  0  0  0  0  0  0
   15.9477   44.5083   11.4212 C   0  0  0  0  0  0  0  0  0  0  0  0
   15.9399   44.7781   10.0338 C   0  0  0  0  0  0  0  0  0  0  0  0
   16.8925   44.1106    9.2831 C   0  0  0  0  0  0  0  0  0  0  0  0
   17.8233   43.2174    9.8339 C   0  0  0  0  0  0  0  0  0  0  0  0
   18.6495   42.7305    8.7197 C   0  0  0  0  0  0  0  0  0  0  0  0
   18.1578   43.3559    7.6205 C   0  0  0  0  0  0  0  0  0  0  0  0
   17.1496   44.1469    7.9390 N   0  0  0  0  0  0  0  0  0  0  0  0
   19.7976   41.7610    8.7222 C   0  0  0  0  0  0  0  0  0  0  0  0
   19.9547   41.1013    7.3459 C   0  0  0  0  0  0  0  0  0  0  0  0
   19.6323   41.9593    6.2005 N   0  0  0  0  0  0  0  0  0  0  0  0
   18.7511   43.1109    6.2899 C   0  0  0  0  0  0  0  0  0  0  0  0
   21.5848   39.9249    5.9657 N   0  0  0  0  0  0  0  0  0  0  0  0
   21.0138   40.5614    4.7789 C   0  0  0  0  0  0  0  0  0  0  0  0
   20.1200   41.7043    4.9674 C   0  0  0  0  0  0  0  0  0  0  0  0
   22.7005   39.0063    5.8311 C   0  0  0  0  0  0  0  0  0  0  0  0
   19.8693   42.3681    3.9937 O   0  0  0  0  0  0  0  0  0  0  0  0
   21.1014   40.1551    7.1798 C   0  0  0  0  0  0  0  0  0  0  0  0
   21.5350   39.6431    8.2248 O   0  0  0  0  0  0  0  0  0  0  0  0
   19.4399   44.4717    5.9240 C   0  0  0  0  0  0  0  0  0  0  0  0
   18.7783   45.4467    5.1953 C   0  0  0  0  0  0  0  0  0  0  0  0
   19.4472   46.6371    4.9023 C   0  0  0  0  0  0  0  0  0  0  0  0
   20.7246   46.8605    5.3097 C   0  0  0  0  0  0  0  0  0  0  0  0
   21.4287   45.9258    6.0339 C   0  0  0  0  0  0  0  0  0  0  0  0
   20.7750   44.7497    6.3296 C   0  0  0  0  0  0  0  0  0  0  0  0
   18.9429   47.6997    4.1952 O   0  0  0  0  0  0  0  0  0  0  0  0
   19.9544   48.7108    4.4802 C   0  0  0  0  0  0  0  0  0  0  0  0
   21.1620   48.0877    4.9042 O   0  0  0  0  0  0  0  0  0  0  0  0
  1  6  2  0  0  0
  1  2  1  0  0  0
  2  3  1  0  0  0
  3  4  2  0  0  0
  4  5  1  0  0  0
  5  6  1  0  0  0
  6  7  1  0  0  0
  7  8  2  0  0  0
  7 10  1  0  0  0
  8  9  1  0  0  0
  8 13  1  0  0  0
  5  9  2  0  0  0
 10 11  1  0  0  0
 11 12  1  0  0  0
 12 16  1  0  0  0
 12 13  1  0  0  0
 13 21  1  0  0  0
 14 17  1  0  0  0
 14 19  1  0  0  0
 14 15  1  0  0  0
 15 16  1  0  0  0
 16 18  2  0  0  0
 21 22  2  0  0  0
 21 26  1  0  0  0
 22 23  1  0  0  0
 23 24  2  0  0  0
 24 29  1  0  0  0
 24 25  1  0  0  0
 25 26  2  0  0  0
 23 27  1  0  0  0
 27 28  1  0  0  0
 28 29  1  0  0  0
 11 19  1  0  0  0
 19 20  2  0  0  0
M  END
> <minimizedAffinity>
-5.41424

$$$$
