1XOZ


 29 34  0  0  0  0  0  0  0  0999 V2000
   29.8626   50.5617    5.7271 C   0  0  0  0  0  0  0  0  0  0  0  0
   29.1945   51.0228    6.8497 C   0  0  0  0  0  0  0  0  0  0  0  0
   28.5126   50.1959    7.7826 C   0  0  0  0  0  0  0  0  0  0  0  0
   28.4870   48.7961    7.5884 C   0  0  0  0  0  0  0  0  0  0  0  0
   29.1535   48.3293    6.4683 C   0  0  0  0  0  0  0  0  0  0  0  0
   29.8206   49.1663    5.5616 C   0  0  0  0  0  0  0  0  0  0  0  0
   30.3878   48.2942    4.5230 C   0  0  0  0  0  0  0  0  0  0  0  0
   30.0235   47.0380    4.8838 C   0  0  0  0  0  0  0  0  0  0  0  0
   29.3169   47.0536    5.9992 N   0  0  0  0  0  0  0  0  0  0  0  0
   31.1971   48.6441    3.3061 C   0  0  0  0  0  0  0  0  0  0  0  0
   32.0588   47.4533    2.8658 C   0  0  0  0  0  0  0  0  0  0  0  0
   31.4545   46.1330    3.0743 N   0  0  0  0  0  0  0  0  0  0  0  0
   30.4192   45.8766    4.0609 C   0  0  0  0  0  0  0  0  0  0  0  0
   33.2489   46.5681    0.9303 N   0  0  0  0  0  0  0  0  0  0  0  0
   32.8982   45.2133    1.3558 C   0  0  0  0  0  0  0  0  0  0  0  0
   31.8561   45.0530    2.3701 C   0  0  0  0  0  0  0  0  0  0  0  0
   34.0359   46.7705   -0.2724 C   0  0  0  0  0  0  0  0  0  0  0  0
   31.4036   43.9463    2.5184 O   0  0  0  0  0  0  0  0  0  0  0  0
   32.8743   47.6348    1.6250 C   0  0  0  0  0  0  0  0  0  0  0  0
   33.1440   48.8088    1.3227 O   0  0  0  0  0  0  0  0  0  0  0  0
   29.0681   45.3650    3.4502 C   0  0  0  0  0  0  0  0  0  0  0  0
   28.4604   44.2054    3.9032 C   0  0  0  0  0  0  0  0  0  0  0  0
   27.2577   43.8037    3.3180 C   0  0  0  0  0  0  0  0  0  0  0  0
   26.6734   44.5165    2.3188 C   0  0  0  0  0  0  0  0  0  0  0  0
   27.2350   45.6738    1.8297 C   0  0  0  0  0  0  0  0  0  0  0  0
   28.4202   46.0786    2.4037 C   0  0  0  0  0  0  0  0  0  0  0  0
   26.5279   42.6882    3.6445 O   0  0  0  0  0  0  0  0  0  0  0  0
   25.2840   42.9699    2.9373 C   0  0  0  0  0  0  0  0  0  0  0  0
   25.5127   43.9277    1.9094 O   0  0  0  0  0  0  0  0  0  0  0  0
  1  6  2  0  0  0
  1  2  1  0  0  0
  2  3  1  0  0  0
  3  4  2  0  0  0
  4  5  1  0  0  0
  5  6  1  0  0  0
  6  7  1  0  0  0
  7  8  2  0  0  0
  7 10  1  0  0  0
  8  9  1  0  0  0
  8 13  1  0  0  0
  5  9  2  0  0  0
 10 11  1  0  0  0
 11 12  1  0  0  0
 12 16  1  0  0  0
 12 13  1  0  0  0
 13 21  1  0  0  0
 14 17  1  0  0  0
 14 19  1  0  0  0
 14 15  1  0  0  0
 15 16  1  0  0  0
 16 18  2  0  0  0
 21 22  2  0  0  0
 21 26  1  0  0  0
 22 23  1  0  0  0
 23 24  2  0  0  0
 24 29  1  0  0  0
 24 25  1  0  0  0
 25 26  2  0  0  0
 23 27  1  0  0  0
 27 28  1  0  0  0
 28 29  1  0  0  0
 11 19  1  0  0  0
 19 20  2  0  0  0
M  END
> <minimizedAffinity>
-7.16968

$$$$
1XOZ


 29 34  0  0  0  0  0  0  0  0999 V2000
   28.1505   52.2752    5.9188 C   0  0  0  0  0  0  0  0  0  0  0  0
   27.4692   52.6264    7.0728 C   0  0  0  0  0  0  0  0  0  0  0  0
   27.2714   51.7694    8.1888 C   0  0  0  0  0  0  0  0  0  0  0  0
   27.7884   50.4541    8.1608 C   0  0  0  0  0  0  0  0  0  0  0  0
   28.4708   50.0975    7.0102 C   0  0  0  0  0  0  0  0  0  0  0  0
   28.6537   50.9625    5.9212 C   0  0  0  0  0  0  0  0  0  0  0  0
   29.4157   50.2130    4.9119 C   0  0  0  0  0  0  0  0  0  0  0  0
   29.6220   48.9915    5.4654 C   0  0  0  0  0  0  0  0  0  0  0  0
   29.0829   48.9217    6.6689 N   0  0  0  0  0  0  0  0  0  0  0  0
   29.8921   50.6376    3.5514 C   0  0  0  0  0  0  0  0  0  0  0  0
   31.1094   49.8097    3.1191 C   0  0  0  0  0  0  0  0  0  0  0  0
   31.1075   48.4131    3.5681 N   0  0  0  0  0  0  0  0  0  0  0  0
   30.3649   47.9493    4.7275 C   0  0  0  0  0  0  0  0  0  0  0  0
   32.3550   49.1367    1.1337 N   0  0  0  0  0  0  0  0  0  0  0  0
   32.6195   47.8414    1.7597 C   0  0  0  0  0  0  0  0  0  0  0  0
   31.8350   47.4669    2.9365 C   0  0  0  0  0  0  0  0  0  0  0  0
   32.8713   49.4210   -0.1927 C   0  0  0  0  0  0  0  0  0  0  0  0
   31.8800   46.3125    3.2784 O   0  0  0  0  0  0  0  0  0  0  0  0
   31.6564   50.0795    1.7532 C   0  0  0  0  0  0  0  0  0  0  0  0
   31.4027   51.1999    1.2813 O   0  0  0  0  0  0  0  0  0  0  0  0
   29.2775   46.8679    4.3983 C   0  0  0  0  0  0  0  0  0  0  0  0
   28.4020   47.0197    3.3355 C   0  0  0  0  0  0  0  0  0  0  0  0
   27.4566   46.0204    3.0949 C   0  0  0  0  0  0  0  0  0  0  0  0
   27.3728   44.9102    3.8749 C   0  0  0  0  0  0  0  0  0  0  0  0
   28.2158   44.7100    4.9441 C   0  0  0  0  0  0  0  0  0  0  0  0
   29.1533   45.6899    5.1865 C   0  0  0  0  0  0  0  0  0  0  0  0
   26.5201   46.0122    2.0918 O   0  0  0  0  0  0  0  0  0  0  0  0
   26.0598   44.6308    2.1712 C   0  0  0  0  0  0  0  0  0  0  0  0
   26.3757   44.0831    3.4465 O   0  0  0  0  0  0  0  0  0  0  0  0
  1  6  2  0  0  0
  1  2  1  0  0  0
  2  3  1  0  0  0
  3  4  2  0  0  0
  4  5  1  0  0  0
  5  6  1  0  0  0
  6  7  1  0  0  0
  7  8  2  0  0  0
  7 10  1  0  0  0
  8  9  1  0  0  0
  8 13  1  0  0  0
  5  9  2  0  0  0
 10 11  1  0  0  0
 11 12  1  0  0  0
 12 16  1  0  0  0
 12 13  1  0  0  0
 13 21  1  0  0  0
 14 17  1  0  0  0
 14 19  1  0  0  0
 14 15  1  0  0  0
 15 16  1  0  0  0
 16 18  2  0  0  0
 21 22  2  0  0  0
 21 26  1  0  0  0
 22 23  1  0  0  0
 23 24  2  0  0  0
 24 29  1  0  0  0
 24 25  1  0  0  0
 25 26  2  0  0  0
 23 27  1  0  0  0
 27 28  1  0  0  0
 28 29  1  0  0  0
 11 19  1  0  0  0
 19 20  2  0  0  0
M  END
> <minimizedAffinity>
-6.86969

$$$$
1XOZ


 29 34  0  0  0  0  0  0  0  0999 V2000
   27.1623   52.9429    6.0740 C   0  0  0  0  0  0  0  0  0  0  0  0
   26.4917   53.1645    7.2658 C   0  0  0  0  0  0  0  0  0  0  0  0
   26.5634   52.3177    8.4046 C   0  0  0  0  0  0  0  0  0  0  0  0
   27.3632   51.1531    8.3609 C   0  0  0  0  0  0  0  0  0  0  0  0
   28.0362   50.9266    7.1725 C   0  0  0  0  0  0  0  0  0  0  0  0
   27.9499   51.7785    6.0614 C   0  0  0  0  0  0  0  0  0  0  0  0
   28.7985   51.1916    5.0143 C   0  0  0  0  0  0  0  0  0  0  0  0
   29.3109   50.0649    5.5702 C   0  0  0  0  0  0  0  0  0  0  0  0
   28.8774   49.9101    6.8078 N   0  0  0  0  0  0  0  0  0  0  0  0
   29.0807   51.6731    3.6191 C   0  0  0  0  0  0  0  0  0  0  0  0
   30.4253   51.1295    3.1182 C   0  0  0  0  0  0  0  0  0  0  0  0
   30.7687   49.7823    3.5863 N   0  0  0  0  0  0  0  0  0  0  0  0
   30.2243   49.1966    4.7992 C   0  0  0  0  0  0  0  0  0  0  0  0
   31.6660   50.6979    1.0638 N   0  0  0  0  0  0  0  0  0  0  0  0
   32.2563   49.5147    1.6892 C   0  0  0  0  0  0  0  0  0  0  0  0
   31.6519   49.0070    2.9211 C   0  0  0  0  0  0  0  0  0  0  0  0
   32.0211   51.0529   -0.2980 C   0  0  0  0  0  0  0  0  0  0  0  0
   31.9792   47.9031    3.2757 O   0  0  0  0  0  0  0  0  0  0  0  0
   30.8110   51.4761    1.7151 C   0  0  0  0  0  0  0  0  0  0  0  0
   30.2805   52.4959    1.2453 O   0  0  0  0  0  0  0  0  0  0  0  0
   29.3931   47.8883    4.5590 C   0  0  0  0  0  0  0  0  0  0  0  0
   28.5233   47.7681    3.4874 C   0  0  0  0  0  0  0  0  0  0  0  0
   27.8122   46.5766    3.3288 C   0  0  0  0  0  0  0  0  0  0  0  0
   27.9495   45.5391    4.1962 C   0  0  0  0  0  0  0  0  0  0  0  0
   28.7975   45.6058    5.2781 C   0  0  0  0  0  0  0  0  0  0  0  0
   29.5049   46.7768    5.4400 C   0  0  0  0  0  0  0  0  0  0  0  0
   26.9153   46.2925    2.3297 O   0  0  0  0  0  0  0  0  0  0  0  0
   26.7530   44.8559    2.5209 C   0  0  0  0  0  0  0  0  0  0  0  0
   27.1550   44.4897    3.8365 O   0  0  0  0  0  0  0  0  0  0  0  0
  1  6  2  0  0  0
  1  2  1  0  0  0
  2  3  1  0  0  0
  3  4  2  0  0  0
  4  5  1  0  0  0
  5  6  1  0  0  0
  6  7  1  0  0  0
  7  8  2  0  0  0
  7 10  1  0  0  0
  8  9  1  0  0  0
  8 13  1  0  0  0
  5  9  2  0  0  0
 10 11  1  0  0  0
 11 12  1  0  0  0
 12 16  1  0  0  0
 12 13  1  0  0  0
 13 21  1  0  0  0
 14 17  1  0  0  0
 14 19  1  0  0  0
 14 15  1  0  0  0
 15 16  1  0  0  0
 16 18  2  0  0  0
 21 22  2  0  0  0
 21 26  1  0  0  0
 22 23  1  0  0  0
 23 24  2  0  0  0
 24 29  1  0  0  0
 24 25  1  0  0  0
 25 26  2  0  0  0
 23 27  1  0  0  0
 27 28  1  0  0  0
 28 29  1  0  0  0
 11 19  1  0  0  0
 19 20  2  0  0  0
M  END
> <minimizedAffinity>
-6.65163

$$$$
1XOZ


 29 34  0  0  0  0  0  0  0  0999 V2000
   26.3848   53.1358    4.0229 C   0  0  0  0  0  0  0  0  0  0  0  0
   25.4354   53.6635    4.8828 C   0  0  0  0  0  0  0  0  0  0  0  0
   25.3348   53.3542    6.2659 C   0  0  0  0  0  0  0  0  0  0  0  0
   26.2478   52.4453    6.8475 C   0  0  0  0  0  0  0  0  0  0  0  0
   27.1993   51.9149    5.9932 C   0  0  0  0  0  0  0  0  0  0  0  0
   27.2788   52.2367    4.6302 C   0  0  0  0  0  0  0  0  0  0  0  0
   28.4074   51.4706    4.0821 C   0  0  0  0  0  0  0  0  0  0  0  0
   28.8993   50.7708    5.1353 C   0  0  0  0  0  0  0  0  0  0  0  0
   28.2104   51.0237    6.2331 N   0  0  0  0  0  0  0  0  0  0  0  0
   28.9503   51.4215    2.6817 C   0  0  0  0  0  0  0  0  0  0  0  0
   30.4265   51.0030    2.6856 C   0  0  0  0  0  0  0  0  0  0  0  0
   30.8001   50.0372    3.7247 N   0  0  0  0  0  0  0  0  0  0  0  0
   30.0578   49.8705    4.9624 C   0  0  0  0  0  0  0  0  0  0  0  0
   32.1505   50.0653    1.2383 N   0  0  0  0  0  0  0  0  0  0  0  0
   32.7079   49.3566    2.3902 C   0  0  0  0  0  0  0  0  0  0  0  0
   31.8945   49.2557    3.6022 C   0  0  0  0  0  0  0  0  0  0  0  0
   32.7702   49.9294   -0.0671 C   0  0  0  0  0  0  0  0  0  0  0  0
   32.2517   48.4622    4.4354 O   0  0  0  0  0  0  0  0  0  0  0  0
   31.0863   50.8496    1.3519 C   0  0  0  0  0  0  0  0  0  0  0  0
   30.5689   51.4829    0.4172 O   0  0  0  0  0  0  0  0  0  0  0  0
   29.4566   48.4350    5.1576 C   0  0  0  0  0  0  0  0  0  0  0  0
   29.0563   47.6634    4.0789 C   0  0  0  0  0  0  0  0  0  0  0  0
   28.5289   46.3929    4.3198 C   0  0  0  0  0  0  0  0  0  0  0  0
   28.3968   45.8985    5.5791 C   0  0  0  0  0  0  0  0  0  0  0  0
   28.7763   46.6230    6.6860 C   0  0  0  0  0  0  0  0  0  0  0  0
   29.3004   47.8764    6.4568 C   0  0  0  0  0  0  0  0  0  0  0  0
   28.0865   45.5037    3.3726 O   0  0  0  0  0  0  0  0  0  0  0  0
   27.9524   44.2989    4.1832 C   0  0  0  0  0  0  0  0  0  0  0  0
   27.8583   44.6450    5.5608 O   0  0  0  0  0  0  0  0  0  0  0  0
  1  6  2  0  0  0
  1  2  1  0  0  0
  2  3  1  0  0  0
  3  4  2  0  0  0
  4  5  1  0  0  0
  5  6  1  0  0  0
  6  7  1  0  0  0
  7  8  2  0  0  0
  7 10  1  0  0  0
  8  9  1  0  0  0
  8 13  1  0  0  0
  5  9  2  0  0  0
 10 11  1  0  0  0
 11 12  1  0  0  0
 12 16  1  0  0  0
 12 13  1  0  0  0
 13 21  1  0  0  0
 14 17  1  0  0  0
 14 19  1  0  0  0
 14 15  1  0  0  0
 15 16  1  0  0  0
 16 18  2  0  0  0
 21 22  2  0  0  0
 21 26  1  0  0  0
 22 23  1  0  0  0
 23 24  2  0  0  0
 24 29  1  0  0  0
 24 25  1  0  0  0
 25 26  2  0  0  0
 23 27  1  0  0  0
 27 28  1  0  0  0
 28 29  1  0  0  0
 11 19  1  0  0  0
 19 20  2  0  0  0
M  END
> <minimizedAffinity>
-6.18880

$$$$
1XOZ


 29 34  0  0  0  0  0  0  0  0999 V2000
   30.6536   52.7015    1.3151 C   0  0  0  0  0  0  0  0  0  0  0  0
   31.0620   53.8470    0.6514 C   0  0  0  0  0  0  0  0  0  0  0  0
   31.1151   55.1432    1.2312 C   0  0  0  0  0  0  0  0  0  0  0  0
   30.7301   55.3226    2.5793 C   0  0  0  0  0  0  0  0  0  0  0  0
   30.3215   54.1813    3.2479 C   0  0  0  0  0  0  0  0  0  0  0  0
   30.2784   52.9115    2.6535 C   0  0  0  0  0  0  0  0  0  0  0  0
   29.7924   51.9813    3.6829 C   0  0  0  0  0  0  0  0  0  0  0  0
   29.5897   52.7508    4.7819 C   0  0  0  0  0  0  0  0  0  0  0  0
   29.8931   54.0124    4.5371 N   0  0  0  0  0  0  0  0  0  0  0  0
   29.5481   50.5005    3.6069 C   0  0  0  0  0  0  0  0  0  0  0  0
   29.6348   49.8633    5.0000 C   0  0  0  0  0  0  0  0  0  0  0  0
   29.1488   50.7005    6.1022 N   0  0  0  0  0  0  0  0  0  0  0  0
   29.0902   52.1507    6.0361 C   0  0  0  0  0  0  0  0  0  0  0  0
   28.9424   47.8820    6.2413 N   0  0  0  0  0  0  0  0  0  0  0  0
   28.7785   48.7092    7.4366 C   0  0  0  0  0  0  0  0  0  0  0  0
   28.7505   50.1630    7.2752 C   0  0  0  0  0  0  0  0  0  0  0  0
   28.6685   46.4579    6.3009 C   0  0  0  0  0  0  0  0  0  0  0  0
   28.3617   50.8096    8.2144 O   0  0  0  0  0  0  0  0  0  0  0  0
   29.3503   48.3974    5.0887 C   0  0  0  0  0  0  0  0  0  0  0  0
   29.5156   47.7507    4.0415 O   0  0  0  0  0  0  0  0  0  0  0  0
   27.6442   52.7387    6.1898 C   0  0  0  0  0  0  0  0  0  0  0  0
   27.3506   53.7030    7.1402 C   0  0  0  0  0  0  0  0  0  0  0  0
   26.0432   54.1864    7.2261 C   0  0  0  0  0  0  0  0  0  0  0  0
   25.0568   53.7349    6.4071 C   0  0  0  0  0  0  0  0  0  0  0  0
   25.2927   52.7769    5.4476 C   0  0  0  0  0  0  0  0  0  0  0  0
   26.5807   52.2969    5.3544 C   0  0  0  0  0  0  0  0  0  0  0  0
   25.5838   55.1354    8.1047 O   0  0  0  0  0  0  0  0  0  0  0  0
   24.2781   55.4240    7.5230 C   0  0  0  0  0  0  0  0  0  0  0  0
   23.8707   54.3513    6.6807 O   0  0  0  0  0  0  0  0  0  0  0  0
  1  6  2  0  0  0
  1  2  1  0  0  0
  2  3  1  0  0  0
  3  4  2  0  0  0
  4  5  1  0  0  0
  5  6  1  0  0  0
  6  7  1  0  0  0
  7  8  2  0  0  0
  7 10  1  0  0  0
  8  9  1  0  0  0
  8 13  1  0  0  0
  5  9  2  0  0  0
 10 11  1  0  0  0
 11 12  1  0  0  0
 12 16  1  0  0  0
 12 13  1  0  0  0
 13 21  1  0  0  0
 14 17  1  0  0  0
 14 19  1  0  0  0
 14 15  1  0  0  0
 15 16  1  0  0  0
 16 18  2  0  0  0
 21 22  2  0  0  0
 21 26  1  0  0  0
 22 23  1  0  0  0
 23 24  2  0  0  0
 24 29  1  0  0  0
 24 25  1  0  0  0
 25 26  2  0  0  0
 23 27  1  0  0  0
 27 28  1  0  0  0
 28 29  1  0  0  0
 11 19  1  0  0  0
 19 20  2  0  0  0
M  END
> <minimizedAffinity>
-6.04531

$$$$
