1XOZ


 29 34  0  0  0  0  0  0  0  0999 V2000
   28.5128   30.9009   36.4032 C   0  0  0  0  0  0  0  0  0  0  0  0
   29.6145   30.4707   35.6816 C   0  0  0  0  0  0  0  0  0  0  0  0
   29.6150   30.2065   34.2855 C   0  0  0  0  0  0  0  0  0  0  0  0
   28.4264   30.3799   33.5405 C   0  0  0  0  0  0  0  0  0  0  0  0
   27.3222   30.8102   34.2561 C   0  0  0  0  0  0  0  0  0  0  0  0
   27.3468   31.0652   35.6352 C   0  0  0  0  0  0  0  0  0  0  0  0
   25.9909   31.4936   36.0082 C   0  0  0  0  0  0  0  0  0  0  0  0
   25.2832   31.4612   34.8510 C   0  0  0  0  0  0  0  0  0  0  0  0
   26.0431   31.0712   33.8439 N   0  0  0  0  0  0  0  0  0  0  0  0
   25.4394   31.8907   37.3484 C   0  0  0  0  0  0  0  0  0  0  0  0
   24.2203   32.8078   37.1842 C   0  0  0  0  0  0  0  0  0  0  0  0
   23.3729   32.5198   36.0219 N   0  0  0  0  0  0  0  0  0  0  0  0
   23.8534   31.8325   34.8355 C   0  0  0  0  0  0  0  0  0  0  0  0
   22.2512   33.6019   38.3835 N   0  0  0  0  0  0  0  0  0  0  0  0
   21.5101   33.6163   37.1224 C   0  0  0  0  0  0  0  0  0  0  0  0
   22.0818   32.9126   35.9741 C   0  0  0  0  0  0  0  0  0  0  0  0
   21.5976   34.0074   39.6143 C   0  0  0  0  0  0  0  0  0  0  0  0
   21.3526   32.7158   35.0355 O   0  0  0  0  0  0  0  0  0  0  0  0
   23.5251   33.2345   38.4381 C   0  0  0  0  0  0  0  0  0  0  0  0
   24.2115   33.2065   39.4727 O   0  0  0  0  0  0  0  0  0  0  0  0
   23.1129   30.4827   34.5359 C   0  0  0  0  0  0  0  0  0  0  0  0
   22.5864   30.2065   33.2846 C   0  0  0  0  0  0  0  0  0  0  0  0
   21.9387   28.9859   33.0820 C   0  0  0  0  0  0  0  0  0  0  0  0
   21.8104   28.0687   34.0770 C   0  0  0  0  0  0  0  0  0  0  0  0
   22.3125   28.2925   35.3387 C   0  0  0  0  0  0  0  0  0  0  0  0
   22.9556   29.4932   35.5460 C   0  0  0  0  0  0  0  0  0  0  0  0
   21.3636   28.5554   31.9126 O   0  0  0  0  0  0  0  0  0  0  0  0
   21.1386   27.1500   32.2305 C   0  0  0  0  0  0  0  0  0  0  0  0
   21.1421   26.9617   33.6415 O   0  0  0  0  0  0  0  0  0  0  0  0
  1  6  2  0  0  0
  1  2  1  0  0  0
  2  3  1  0  0  0
  3  4  2  0  0  0
  4  5  1  0  0  0
  5  6  1  0  0  0
  6  7  1  0  0  0
  7  8  2  0  0  0
  7 10  1  0  0  0
  8  9  1  0  0  0
  8 13  1  0  0  0
  5  9  2  0  0  0
 10 11  1  0  0  0
 11 12  1  0  0  0
 12 16  1  0  0  0
 12 13  1  0  0  0
 13 21  1  0  0  0
 14 17  1  0  0  0
 14 19  1  0  0  0
 14 15  1  0  0  0
 15 16  1  0  0  0
 16 18  2  0  0  0
 21 22  2  0  0  0
 21 26  1  0  0  0
 22 23  1  0  0  0
 23 24  2  0  0  0
 24 29  1  0  0  0
 24 25  1  0  0  0
 25 26  2  0  0  0
 23 27  1  0  0  0
 27 28  1  0  0  0
 28 29  1  0  0  0
 11 19  1  0  0  0
 19 20  2  0  0  0
M  END
> <minimizedAffinity>
-7.00895

$$$$
1XOZ


 29 34  0  0  0  0  0  0  0  0999 V2000
   28.1048   29.5694   33.7248 C   0  0  0  0  0  0  0  0  0  0  0  0
   29.3570   29.9722   34.1596 C   0  0  0  0  0  0  0  0  0  0  0  0
   29.6473   30.4401   35.4695 C   0  0  0  0  0  0  0  0  0  0  0  0
   28.6127   30.5188   36.4293 C   0  0  0  0  0  0  0  0  0  0  0  0
   27.3591   30.1171   36.0007 C   0  0  0  0  0  0  0  0  0  0  0  0
   27.0975   29.6577   34.7014 C   0  0  0  0  0  0  0  0  0  0  0  0
   25.6635   29.3383   34.6488 C   0  0  0  0  0  0  0  0  0  0  0  0
   25.1957   29.6249   35.8898 C   0  0  0  0  0  0  0  0  0  0  0  0
   26.1649   30.0704   36.6682 N   0  0  0  0  0  0  0  0  0  0  0  0
   24.8337   28.8119   33.5120 C   0  0  0  0  0  0  0  0  0  0  0  0
   23.5942   28.0769   34.0388 C   0  0  0  0  0  0  0  0  0  0  0  0
   23.0128   28.6315   35.2662 N   0  0  0  0  0  0  0  0  0  0  0  0
   23.7686   29.4280   36.2174 C   0  0  0  0  0  0  0  0  0  0  0  0
   21.3711   27.3458   33.3534 N   0  0  0  0  0  0  0  0  0  0  0  0
   20.8865   27.6058   34.7089 C   0  0  0  0  0  0  0  0  0  0  0  0
   21.7257   28.4022   35.6045 C   0  0  0  0  0  0  0  0  0  0  0  0
   20.4617   26.8393   32.3420 C   0  0  0  0  0  0  0  0  0  0  0  0
   21.2091   28.8201   36.6095 O   0  0  0  0  0  0  0  0  0  0  0  0
   22.6378   27.5510   33.0158 C   0  0  0  0  0  0  0  0  0  0  0  0
   23.1135   27.3445   31.8874 O   0  0  0  0  0  0  0  0  0  0  0  0
   23.2182   30.8839   36.4106 C   0  0  0  0  0  0  0  0  0  0  0  0
   22.9887   31.7218   35.3314 C   0  0  0  0  0  0  0  0  0  0  0  0
   22.4975   33.0070   35.5704 C   0  0  0  0  0  0  0  0  0  0  0  0
   22.2430   33.4548   36.8284 C   0  0  0  0  0  0  0  0  0  0  0  0
   22.4550   32.6654   37.9357 C   0  0  0  0  0  0  0  0  0  0  0  0
   22.9368   31.3949   37.7083 C   0  0  0  0  0  0  0  0  0  0  0  0
   22.2167   33.9589   34.6224 O   0  0  0  0  0  0  0  0  0  0  0  0
   21.4798   34.9253   35.4285 C   0  0  0  0  0  0  0  0  0  0  0  0
   21.7738   34.7358   36.8083 O   0  0  0  0  0  0  0  0  0  0  0  0
  1  6  2  0  0  0
  1  2  1  0  0  0
  2  3  1  0  0  0
  3  4  2  0  0  0
  4  5  1  0  0  0
  5  6  1  0  0  0
  6  7  1  0  0  0
  7  8  2  0  0  0
  7 10  1  0  0  0
  8  9  1  0  0  0
  8 13  1  0  0  0
  5  9  2  0  0  0
 10 11  1  0  0  0
 11 12  1  0  0  0
 12 16  1  0  0  0
 12 13  1  0  0  0
 13 21  1  0  0  0
 14 17  1  0  0  0
 14 19  1  0  0  0
 14 15  1  0  0  0
 15 16  1  0  0  0
 16 18  2  0  0  0
 21 22  2  0  0  0
 21 26  1  0  0  0
 22 23  1  0  0  0
 23 24  2  0  0  0
 24 29  1  0  0  0
 24 25  1  0  0  0
 25 26  2  0  0  0
 23 27  1  0  0  0
 27 28  1  0  0  0
 28 29  1  0  0  0
 11 19  1  0  0  0
 19 20  2  0  0  0
M  END
> <minimizedAffinity>
-6.93136

$$$$
1XOZ


 29 34  0  0  0  0  0  0  0  0999 V2000
   27.4135   32.0678   33.2163 C   0  0  0  0  0  0  0  0  0  0  0  0
   28.5183   31.3435   32.7992 C   0  0  0  0  0  0  0  0  0  0  0  0
   28.9242   30.0976   33.3488 C   0  0  0  0  0  0  0  0  0  0  0  0
   28.1767   29.5204   34.4004 C   0  0  0  0  0  0  0  0  0  0  0  0
   27.0710   30.2394   34.8212 C   0  0  0  0  0  0  0  0  0  0  0  0
   26.6899   31.4680   34.2618 C   0  0  0  0  0  0  0  0  0  0  0  0
   25.4826   31.9010   34.9801 C   0  0  0  0  0  0  0  0  0  0  0  0
   25.2453   30.9207   35.8877 C   0  0  0  0  0  0  0  0  0  0  0  0
   26.1528   29.9657   35.7990 N   0  0  0  0  0  0  0  0  0  0  0  0
   24.6478   33.1382   34.8052 C   0  0  0  0  0  0  0  0  0  0  0  0
   23.2158   32.9023   35.3033 C   0  0  0  0  0  0  0  0  0  0  0  0
   23.0955   32.0113   36.4623 N   0  0  0  0  0  0  0  0  0  0  0  0
   24.0932   31.0133   36.8079 C   0  0  0  0  0  0  0  0  0  0  0  0
   21.2341   34.1043   36.0612 N   0  0  0  0  0  0  0  0  0  0  0  0
   20.9546   33.0172   36.9993 C   0  0  0  0  0  0  0  0  0  0  0  0
   22.0149   32.0464   37.2714 C   0  0  0  0  0  0  0  0  0  0  0  0
   20.3467   35.2508   35.9933 C   0  0  0  0  0  0  0  0  0  0  0  0
   21.8625   31.3233   38.2229 O   0  0  0  0  0  0  0  0  0  0  0  0
   22.2834   34.0708   35.2496 C   0  0  0  0  0  0  0  0  0  0  0  0
   22.5727   34.9555   34.4275 O   0  0  0  0  0  0  0  0  0  0  0  0
   24.7479   31.2266   38.2171 C   0  0  0  0  0  0  0  0  0  0  0  0
   25.3098   32.4399   38.5798 C   0  0  0  0  0  0  0  0  0  0  0  0
   25.8769   32.5655   39.8498 C   0  0  0  0  0  0  0  0  0  0  0  0
   25.8938   31.5322   40.7327 C   0  0  0  0  0  0  0  0  0  0  0  0
   25.3520   30.3054   40.4236 C   0  0  0  0  0  0  0  0  0  0  0  0
   24.7878   30.1740   39.1736 C   0  0  0  0  0  0  0  0  0  0  0  0
   26.4723   33.6890   40.3663 O   0  0  0  0  0  0  0  0  0  0  0  0
   26.5814   33.3087   41.7699 C   0  0  0  0  0  0  0  0  0  0  0  0
   26.5002   31.8936   41.9003 O   0  0  0  0  0  0  0  0  0  0  0  0
  1  6  2  0  0  0
  1  2  1  0  0  0
  2  3  1  0  0  0
  3  4  2  0  0  0
  4  5  1  0  0  0
  5  6  1  0  0  0
  6  7  1  0  0  0
  7  8  2  0  0  0
  7 10  1  0  0  0
  8  9  1  0  0  0
  8 13  1  0  0  0
  5  9  2  0  0  0
 10 11  1  0  0  0
 11 12  1  0  0  0
 12 16  1  0  0  0
 12 13  1  0  0  0
 13 21  1  0  0  0
 14 17  1  0  0  0
 14 19  1  0  0  0
 14 15  1  0  0  0
 15 16  1  0  0  0
 16 18  2  0  0  0
 21 22  2  0  0  0
 21 26  1  0  0  0
 22 23  1  0  0  0
 23 24  2  0  0  0
 24 29  1  0  0  0
 24 25  1  0  0  0
 25 26  2  0  0  0
 23 27  1  0  0  0
 27 28  1  0  0  0
 28 29  1  0  0  0
 11 19  1  0  0  0
 19 20  2  0  0  0
M  END
> <minimizedAffinity>
-6.83854

$$$$
1XOZ


 29 34  0  0  0  0  0  0  0  0999 V2000
   22.2838   26.9631   34.4827 C   0  0  0  0  0  0  0  0  0  0  0  0
   21.2536   26.6059   33.6281 C   0  0  0  0  0  0  0  0  0  0  0  0
   20.7115   27.4457   32.6182 C   0  0  0  0  0  0  0  0  0  0  0  0
   21.2295   28.7486   32.4396 C   0  0  0  0  0  0  0  0  0  0  0  0
   22.2597   29.1111   33.2905 C   0  0  0  0  0  0  0  0  0  0  0  0
   22.7787   28.2632   34.2801 C   0  0  0  0  0  0  0  0  0  0  0  0
   23.8437   29.0137   34.9610 C   0  0  0  0  0  0  0  0  0  0  0  0
   23.8746   30.2191   34.3388 C   0  0  0  0  0  0  0  0  0  0  0  0
   22.9690   30.2785   33.3797 N   0  0  0  0  0  0  0  0  0  0  0  0
   24.7364   28.6043   36.0983 C   0  0  0  0  0  0  0  0  0  0  0  0
   26.0413   29.4114   36.0825 C   0  0  0  0  0  0  0  0  0  0  0  0
   25.9132   30.7986   35.6231 N   0  0  0  0  0  0  0  0  0  0  0  0
   24.8364   31.2575   34.7625 C   0  0  0  0  0  0  0  0  0  0  0  0
   27.8841   30.0928   37.5267 N   0  0  0  0  0  0  0  0  0  0  0  0
   27.9473   31.3692   36.8150 C   0  0  0  0  0  0  0  0  0  0  0  0
   26.8237   31.7393   35.9541 C   0  0  0  0  0  0  0  0  0  0  0  0
   28.8056   29.8220   38.6149 C   0  0  0  0  0  0  0  0  0  0  0  0
   26.7715   32.8855   35.5866 O   0  0  0  0  0  0  0  0  0  0  0  0
   27.0049   29.1550   37.1976 C   0  0  0  0  0  0  0  0  0  0  0  0
   26.9038   28.0503   37.7557 O   0  0  0  0  0  0  0  0  0  0  0  0
   23.9366   32.3705   35.4041 C   0  0  0  0  0  0  0  0  0  0  0  0
   23.4604   32.2604   36.7004 C   0  0  0  0  0  0  0  0  0  0  0  0
   22.6638   33.2863   37.2137 C   0  0  0  0  0  0  0  0  0  0  0  0
   22.3438   34.3824   36.4763 C   0  0  0  0  0  0  0  0  0  0  0  0
   22.7879   34.5416   35.1835 C   0  0  0  0  0  0  0  0  0  0  0  0
   23.5768   33.5352   34.6706 C   0  0  0  0  0  0  0  0  0  0  0  0
   22.1128   33.3363   38.4696 O   0  0  0  0  0  0  0  0  0  0  0  0
   21.6739   34.7264   38.5105 C   0  0  0  0  0  0  0  0  0  0  0  0
   21.5580   35.2411   37.1884 O   0  0  0  0  0  0  0  0  0  0  0  0
  1  6  2  0  0  0
  1  2  1  0  0  0
  2  3  1  0  0  0
  3  4  2  0  0  0
  4  5  1  0  0  0
  5  6  1  0  0  0
  6  7  1  0  0  0
  7  8  2  0  0  0
  7 10  1  0  0  0
  8  9  1  0  0  0
  8 13  1  0  0  0
  5  9  2  0  0  0
 10 11  1  0  0  0
 11 12  1  0  0  0
 12 16  1  0  0  0
 12 13  1  0  0  0
 13 21  1  0  0  0
 14 17  1  0  0  0
 14 19  1  0  0  0
 14 15  1  0  0  0
 15 16  1  0  0  0
 16 18  2  0  0  0
 21 22  2  0  0  0
 21 26  1  0  0  0
 22 23  1  0  0  0
 23 24  2  0  0  0
 24 29  1  0  0  0
 24 25  1  0  0  0
 25 26  2  0  0  0
 23 27  1  0  0  0
 27 28  1  0  0  0
 28 29  1  0  0  0
 11 19  1  0  0  0
 19 20  2  0  0  0
M  END
> <minimizedAffinity>
-6.73669

$$$$
1XOZ


 29 34  0  0  0  0  0  0  0  0999 V2000
   23.1137   27.3248   32.9370 C   0  0  0  0  0  0  0  0  0  0  0  0
   21.8982   27.0978   32.3122 C   0  0  0  0  0  0  0  0  0  0  0  0
   20.9187   28.0958   32.0602 C   0  0  0  0  0  0  0  0  0  0  0  0
   21.1598   29.4295   32.4613 C   0  0  0  0  0  0  0  0  0  0  0  0
   22.3731   29.6626   33.0859 C   0  0  0  0  0  0  0  0  0  0  0  0
   23.3250   28.6600   33.3230 C   0  0  0  0  0  0  0  0  0  0  0  0
   24.4573   29.3068   34.0017 C   0  0  0  0  0  0  0  0  0  0  0  0
   24.0999   30.6110   34.1123 C   0  0  0  0  0  0  0  0  0  0  0  0
   22.9063   30.8194   33.5873 N   0  0  0  0  0  0  0  0  0  0  0  0
   25.7502   28.7197   34.4935 C   0  0  0  0  0  0  0  0  0  0  0  0
   26.8406   29.7962   34.5723 C   0  0  0  0  0  0  0  0  0  0  0  0
   26.3726   31.1341   34.9504 N   0  0  0  0  0  0  0  0  0  0  0  0
   25.0051   31.5848   34.7564 C   0  0  0  0  0  0  0  0  0  0  0  0
   28.9783   30.2758   35.6431 N   0  0  0  0  0  0  0  0  0  0  0  0
   28.6084   31.6895   35.7094 C   0  0  0  0  0  0  0  0  0  0  0  0
   27.2094   32.0516   35.4809 C   0  0  0  0  0  0  0  0  0  0  0  0
   30.2615   29.8361   36.1596 C   0  0  0  0  0  0  0  0  0  0  0  0
   26.8765   33.1676   35.7895 O   0  0  0  0  0  0  0  0  0  0  0  0
   28.1706   29.3693   35.1077 C   0  0  0  0  0  0  0  0  0  0  0  0
   28.4267   28.1577   35.0148 O   0  0  0  0  0  0  0  0  0  0  0  0
   24.2658   31.9708   36.0847 C   0  0  0  0  0  0  0  0  0  0  0  0
   23.5211   33.1344   36.1886 C   0  0  0  0  0  0  0  0  0  0  0  0
   22.8864   33.4208   37.3992 C   0  0  0  0  0  0  0  0  0  0  0  0
   22.9830   32.5925   38.4727 C   0  0  0  0  0  0  0  0  0  0  0  0
   23.7111   31.4257   38.4251 C   0  0  0  0  0  0  0  0  0  0  0  0
   24.3379   31.1343   37.2333 C   0  0  0  0  0  0  0  0  0  0  0  0
   22.1153   34.5229   37.6716 O   0  0  0  0  0  0  0  0  0  0  0  0
   21.5103   34.1165   38.9347 C   0  0  0  0  0  0  0  0  0  0  0  0
   22.2825   33.0829   39.5360 O   0  0  0  0  0  0  0  0  0  0  0  0
  1  6  2  0  0  0
  1  2  1  0  0  0
  2  3  1  0  0  0
  3  4  2  0  0  0
  4  5  1  0  0  0
  5  6  1  0  0  0
  6  7  1  0  0  0
  7  8  2  0  0  0
  7 10  1  0  0  0
  8  9  1  0  0  0
  8 13  1  0  0  0
  5  9  2  0  0  0
 10 11  1  0  0  0
 11 12  1  0  0  0
 12 16  1  0  0  0
 12 13  1  0  0  0
 13 21  1  0  0  0
 14 17  1  0  0  0
 14 19  1  0  0  0
 14 15  1  0  0  0
 15 16  1  0  0  0
 16 18  2  0  0  0
 21 22  2  0  0  0
 21 26  1  0  0  0
 22 23  1  0  0  0
 23 24  2  0  0  0
 24 29  1  0  0  0
 24 25  1  0  0  0
 25 26  2  0  0  0
 23 27  1  0  0  0
 27 28  1  0  0  0
 28 29  1  0  0  0
 11 19  1  0  0  0
 19 20  2  0  0  0
M  END
> <minimizedAffinity>
-6.67049

$$$$
