1XOZ


 29 34  0  0  0  0  0  0  0  0999 V2000
   39.4267   19.7727   28.6171 C   0  0  0  0  0  0  0  0  0  0  0  0
   39.3161   20.6245   29.7040 C   0  0  0  0  0  0  0  0  0  0  0  0
   38.7618   20.2644   30.9618 C   0  0  0  0  0  0  0  0  0  0  0  0
   38.2739   18.9529   31.1613 C   0  0  0  0  0  0  0  0  0  0  0  0
   38.3821   18.0968   30.0787 C   0  0  0  0  0  0  0  0  0  0  0  0
   38.9344   18.4759   28.8463 C   0  0  0  0  0  0  0  0  0  0  0  0
   38.8627   17.2961   27.9723 C   0  0  0  0  0  0  0  0  0  0  0  0
   38.2882   16.3312   28.7339 C   0  0  0  0  0  0  0  0  0  0  0  0
   38.0124   16.7858   29.9425 N   0  0  0  0  0  0  0  0  0  0  0  0
   39.3037   17.1240   26.5461 C   0  0  0  0  0  0  0  0  0  0  0  0
   39.5978   15.6491   26.2425 C   0  0  0  0  0  0  0  0  0  0  0  0
   38.7395   14.6840   26.9382 N   0  0  0  0  0  0  0  0  0  0  0  0
   38.0476   14.9827   28.1803 C   0  0  0  0  0  0  0  0  0  0  0  0
   39.7971   14.0838   24.3833 N   0  0  0  0  0  0  0  0  0  0  0  0
   39.2273   13.0344   25.2281 C   0  0  0  0  0  0  0  0  0  0  0  0
   38.5656   13.4287   26.4721 C   0  0  0  0  0  0  0  0  0  0  0  0
   40.1801   13.7865   23.0153 C   0  0  0  0  0  0  0  0  0  0  0  0
   37.8865   12.5962   27.0173 O   0  0  0  0  0  0  0  0  0  0  0  0
   39.9884   15.3158   24.8374 C   0  0  0  0  0  0  0  0  0  0  0  0
   40.4726   16.2485   24.1757 O   0  0  0  0  0  0  0  0  0  0  0  0
   36.4853   14.8859   28.0799 C   0  0  0  0  0  0  0  0  0  0  0  0
   35.7343   14.2463   29.0526 C   0  0  0  0  0  0  0  0  0  0  0  0
   34.3465   14.1946   28.9049 C   0  0  0  0  0  0  0  0  0  0  0  0
   33.7183   14.7505   27.8353 C   0  0  0  0  0  0  0  0  0  0  0  0
   34.4156   15.3956   26.8395 C   0  0  0  0  0  0  0  0  0  0  0  0
   35.7850   15.4536   26.9792 C   0  0  0  0  0  0  0  0  0  0  0  0
   33.4588   13.6040   29.7690 O   0  0  0  0  0  0  0  0  0  0  0  0
   32.1995   14.1283   29.2534 C   0  0  0  0  0  0  0  0  0  0  0  0
   32.3678   14.5711   27.9110 O   0  0  0  0  0  0  0  0  0  0  0  0
  1  6  2  0  0  0
  1  2  1  0  0  0
  2  3  1  0  0  0
  3  4  2  0  0  0
  4  5  1  0  0  0
  5  6  1  0  0  0
  6  7  1  0  0  0
  7  8  2  0  0  0
  7 10  1  0  0  0
  8  9  1  0  0  0
  8 13  1  0  0  0
  5  9  2  0  0  0
 10 11  1  0  0  0
 11 12  1  0  0  0
 12 16  1  0  0  0
 12 13  1  0  0  0
 13 21  1  0  0  0
 14 17  1  0  0  0
 14 19  1  0  0  0
 14 15  1  0  0  0
 15 16  1  0  0  0
 16 18  2  0  0  0
 21 22  2  0  0  0
 21 26  1  0  0  0
 22 23  1  0  0  0
 23 24  2  0  0  0
 24 29  1  0  0  0
 24 25  1  0  0  0
 25 26  2  0  0  0
 23 27  1  0  0  0
 27 28  1  0  0  0
 28 29  1  0  0  0
 11 19  1  0  0  0
 19 20  2  0  0  0
M  END
> <minimizedAffinity>
-5.59677

$$$$
1XOZ


 29 34  0  0  0  0  0  0  0  0999 V2000
   38.6722   17.6024   30.2196 C   0  0  0  0  0  0  0  0  0  0  0  0
   39.9132   18.0674   29.8161 C   0  0  0  0  0  0  0  0  0  0  0  0
   40.4699   17.8721   28.5234 C   0  0  0  0  0  0  0  0  0  0  0  0
   39.7396   17.1552   27.5485 C   0  0  0  0  0  0  0  0  0  0  0  0
   38.4982   16.6884   27.9458 C   0  0  0  0  0  0  0  0  0  0  0  0
   37.9696   16.8948   29.2286 C   0  0  0  0  0  0  0  0  0  0  0  0
   36.6498   16.2477   29.2490 C   0  0  0  0  0  0  0  0  0  0  0  0
   36.4997   15.7205   28.0078 C   0  0  0  0  0  0  0  0  0  0  0  0
   37.5566   15.9720   27.2572 N   0  0  0  0  0  0  0  0  0  0  0  0
   35.6407   16.1496   30.3581 C   0  0  0  0  0  0  0  0  0  0  0  0
   34.2296   15.9432   29.7922 C   0  0  0  0  0  0  0  0  0  0  0  0
   34.1579   15.1359   28.5695 N   0  0  0  0  0  0  0  0  0  0  0  0
   35.2728   14.9787   27.6513 C   0  0  0  0  0  0  0  0  0  0  0  0
   32.0187   15.1294   30.4215 N   0  0  0  0  0  0  0  0  0  0  0  0
   31.8421   14.6114   29.0649 C   0  0  0  0  0  0  0  0  0  0  0  0
   33.0203   14.5069   28.2039 C   0  0  0  0  0  0  0  0  0  0  0  0
   30.9636   14.9650   31.4045 C   0  0  0  0  0  0  0  0  0  0  0  0
   32.9075   13.8488   27.2010 O   0  0  0  0  0  0  0  0  0  0  0  0
   33.1254   15.7646   30.7855 C   0  0  0  0  0  0  0  0  0  0  0  0
   33.3350   16.2333   31.9163 O   0  0  0  0  0  0  0  0  0  0  0  0
   35.7589   13.4967   27.4852 C   0  0  0  0  0  0  0  0  0  0  0  0
   35.9666   12.9372   26.2350 C   0  0  0  0  0  0  0  0  0  0  0  0
   36.4002   11.6121   26.1548 C   0  0  0  0  0  0  0  0  0  0  0  0
   36.6194   10.8611   27.2665 C   0  0  0  0  0  0  0  0  0  0  0  0
   36.4267   11.3660   28.5322 C   0  0  0  0  0  0  0  0  0  0  0  0
   36.0018   12.6736   28.6200 C   0  0  0  0  0  0  0  0  0  0  0  0
   36.6526   10.9079   25.0043 O   0  0  0  0  0  0  0  0  0  0  0  0
   37.3379    9.7431   25.5523 C   0  0  0  0  0  0  0  0  0  0  0  0
   37.0344    9.6041   26.9361 O   0  0  0  0  0  0  0  0  0  0  0  0
  1  6  2  0  0  0
  1  2  1  0  0  0
  2  3  1  0  0  0
  3  4  2  0  0  0
  4  5  1  0  0  0
  5  6  1  0  0  0
  6  7  1  0  0  0
  7  8  2  0  0  0
  7 10  1  0  0  0
  8  9  1  0  0  0
  8 13  1  0  0  0
  5  9  2  0  0  0
 10 11  1  0  0  0
 11 12  1  0  0  0
 12 16  1  0  0  0
 12 13  1  0  0  0
 13 21  1  0  0  0
 14 17  1  0  0  0
 14 19  1  0  0  0
 14 15  1  0  0  0
 15 16  1  0  0  0
 16 18  2  0  0  0
 21 22  2  0  0  0
 21 26  1  0  0  0
 22 23  1  0  0  0
 23 24  2  0  0  0
 24 29  1  0  0  0
 24 25  1  0  0  0
 25 26  2  0  0  0
 23 27  1  0  0  0
 27 28  1  0  0  0
 28 29  1  0  0  0
 11 19  1  0  0  0
 19 20  2  0  0  0
M  END
> <minimizedAffinity>
-5.27921

$$$$
1XOZ


 29 34  0  0  0  0  0  0  0  0999 V2000
   34.0642   14.8850   26.8257 C   0  0  0  0  0  0  0  0  0  0  0  0
   32.9253   14.9530   27.6115 C   0  0  0  0  0  0  0  0  0  0  0  0
   32.8990   15.3918   28.9627 C   0  0  0  0  0  0  0  0  0  0  0  0
   34.0994   15.7950   29.5906 C   0  0  0  0  0  0  0  0  0  0  0  0
   35.2410   15.7297   28.8100 C   0  0  0  0  0  0  0  0  0  0  0  0
   35.2413   15.2934   27.4769 C   0  0  0  0  0  0  0  0  0  0  0  0
   36.6332   15.3683   27.0100 C   0  0  0  0  0  0  0  0  0  0  0  0
   37.3347   15.8322   28.0748 C   0  0  0  0  0  0  0  0  0  0  0  0
   36.5401   16.0419   29.1083 N   0  0  0  0  0  0  0  0  0  0  0  0
   37.2212   15.0236   25.6707 C   0  0  0  0  0  0  0  0  0  0  0  0
   38.5265   15.7950   25.4355 C   0  0  0  0  0  0  0  0  0  0  0  0
   39.3412   16.0257   26.6334 N   0  0  0  0  0  0  0  0  0  0  0  0
   38.7947   16.0371   27.9795 C   0  0  0  0  0  0  0  0  0  0  0  0
   40.5648   15.7387   24.0983 N   0  0  0  0  0  0  0  0  0  0  0  0
   41.3043   16.2903   25.2335 C   0  0  0  0  0  0  0  0  0  0  0  0
   40.6653   16.2772   26.5496 C   0  0  0  0  0  0  0  0  0  0  0  0
   41.2552   15.4448   22.8559 C   0  0  0  0  0  0  0  0  0  0  0  0
   41.3716   16.4907   27.5020 O   0  0  0  0  0  0  0  0  0  0  0  0
   39.2604   15.5047   24.1648 C   0  0  0  0  0  0  0  0  0  0  0  0
   38.5740   15.0451   23.2375 O   0  0  0  0  0  0  0  0  0  0  0  0
   39.3957   14.9367   28.9218 C   0  0  0  0  0  0  0  0  0  0  0  0
   39.4711   13.6096   28.5313 C   0  0  0  0  0  0  0  0  0  0  0  0
   40.0175   12.6780   29.4167 C   0  0  0  0  0  0  0  0  0  0  0  0
   40.4720   13.0384   30.6460 C   0  0  0  0  0  0  0  0  0  0  0  0
   40.4192   14.3417   31.0852 C   0  0  0  0  0  0  0  0  0  0  0  0
   39.8842   15.2675   30.2164 C   0  0  0  0  0  0  0  0  0  0  0  0
   40.1659   11.3324   29.1911 O   0  0  0  0  0  0  0  0  0  0  0  0
   41.0368   10.9724   30.3039 C   0  0  0  0  0  0  0  0  0  0  0  0
   40.9565   11.9595   31.3264 O   0  0  0  0  0  0  0  0  0  0  0  0
  1  6  2  0  0  0
  1  2  1  0  0  0
  2  3  1  0  0  0
  3  4  2  0  0  0
  4  5  1  0  0  0
  5  6  1  0  0  0
  6  7  1  0  0  0
  7  8  2  0  0  0
  7 10  1  0  0  0
  8  9  1  0  0  0
  8 13  1  0  0  0
  5  9  2  0  0  0
 10 11  1  0  0  0
 11 12  1  0  0  0
 12 16  1  0  0  0
 12 13  1  0  0  0
 13 21  1  0  0  0
 14 17  1  0  0  0
 14 19  1  0  0  0
 14 15  1  0  0  0
 15 16  1  0  0  0
 16 18  2  0  0  0
 21 22  2  0  0  0
 21 26  1  0  0  0
 22 23  1  0  0  0
 23 24  2  0  0  0
 24 29  1  0  0  0
 24 25  1  0  0  0
 25 26  2  0  0  0
 23 27  1  0  0  0
 27 28  1  0  0  0
 28 29  1  0  0  0
 11 19  1  0  0  0
 19 20  2  0  0  0
M  END
> <minimizedAffinity>
-5.27728

$$$$
1XOZ


 29 34  0  0  0  0  0  0  0  0999 V2000
   41.3536   16.6255   23.7002 C   0  0  0  0  0  0  0  0  0  0  0  0
   41.5921   16.3747   22.3588 C   0  0  0  0  0  0  0  0  0  0  0  0
   40.7103   15.6669   21.4983 C   0  0  0  0  0  0  0  0  0  0  0  0
   39.4917   15.1628   22.0068 C   0  0  0  0  0  0  0  0  0  0  0  0
   39.2475   15.4108   23.3468 C   0  0  0  0  0  0  0  0  0  0  0  0
   40.1340   16.1133   24.1764 C   0  0  0  0  0  0  0  0  0  0  0  0
   39.5168   16.1577   25.5099 C   0  0  0  0  0  0  0  0  0  0  0  0
   38.3407   15.4951   25.3730 C   0  0  0  0  0  0  0  0  0  0  0  0
   38.1819   15.0666   24.1341 N   0  0  0  0  0  0  0  0  0  0  0  0
   40.0175   16.7766   26.7843 C   0  0  0  0  0  0  0  0  0  0  0  0
   38.8494   17.1126   27.7207 C   0  0  0  0  0  0  0  0  0  0  0  0
   37.7207   16.1769   27.6734 N   0  0  0  0  0  0  0  0  0  0  0  0
   37.4329   15.3319   26.5271 C   0  0  0  0  0  0  0  0  0  0  0  0
   38.3460   17.5522   30.0658 N   0  0  0  0  0  0  0  0  0  0  0  0
   37.0558   16.8840   29.8963 C   0  0  0  0  0  0  0  0  0  0  0  0
   36.8493   16.0685   28.6993 C   0  0  0  0  0  0  0  0  0  0  0  0
   38.7124   18.1067   31.3561 C   0  0  0  0  0  0  0  0  0  0  0  0
   35.8981   15.3290   28.6993 O   0  0  0  0  0  0  0  0  0  0  0  0
   39.2015   17.6795   29.0596 C   0  0  0  0  0  0  0  0  0  0  0  0
   40.3071   18.2400   29.1351 O   0  0  0  0  0  0  0  0  0  0  0  0
   37.4847   13.7954   26.8377 C   0  0  0  0  0  0  0  0  0  0  0  0
   36.4400   12.9512   26.4984 C   0  0  0  0  0  0  0  0  0  0  0  0
   36.5477   11.5923   26.8021 C   0  0  0  0  0  0  0  0  0  0  0  0
   37.6445   11.0809   27.4212 C   0  0  0  0  0  0  0  0  0  0  0  0
   38.7094   11.8744   27.7821 C   0  0  0  0  0  0  0  0  0  0  0  0
   38.6123   13.2159   27.4833 C   0  0  0  0  0  0  0  0  0  0  0  0
   35.6117   10.6240   26.5380 O   0  0  0  0  0  0  0  0  0  0  0  0
   36.3955    9.4215   26.7958 C   0  0  0  0  0  0  0  0  0  0  0  0
   37.5180    9.7359   27.6127 O   0  0  0  0  0  0  0  0  0  0  0  0
  1  6  2  0  0  0
  1  2  1  0  0  0
  2  3  1  0  0  0
  3  4  2  0  0  0
  4  5  1  0  0  0
  5  6  1  0  0  0
  6  7  1  0  0  0
  7  8  2  0  0  0
  7 10  1  0  0  0
  8  9  1  0  0  0
  8 13  1  0  0  0
  5  9  2  0  0  0
 10 11  1  0  0  0
 11 12  1  0  0  0
 12 16  1  0  0  0
 12 13  1  0  0  0
 13 21  1  0  0  0
 14 17  1  0  0  0
 14 19  1  0  0  0
 14 15  1  0  0  0
 15 16  1  0  0  0
 16 18  2  0  0  0
 21 22  2  0  0  0
 21 26  1  0  0  0
 22 23  1  0  0  0
 23 24  2  0  0  0
 24 29  1  0  0  0
 24 25  1  0  0  0
 25 26  2  0  0  0
 23 27  1  0  0  0
 27 28  1  0  0  0
 28 29  1  0  0  0
 11 19  1  0  0  0
 19 20  2  0  0  0
M  END
> <minimizedAffinity>
-5.22974

$$$$
1XOZ


 29 34  0  0  0  0  0  0  0  0999 V2000
   34.4260   15.4339   26.6373 C   0  0  0  0  0  0  0  0  0  0  0  0
   33.1655   14.8892   26.8210 C   0  0  0  0  0  0  0  0  0  0  0  0
   32.9124   13.5892   27.3357 C   0  0  0  0  0  0  0  0  0  0  0  0
   33.9962   12.7569   27.6971 C   0  0  0  0  0  0  0  0  0  0  0  0
   35.2585   13.2960   27.5163 C   0  0  0  0  0  0  0  0  0  0  0  0
   35.4828   14.5834   27.0066 C   0  0  0  0  0  0  0  0  0  0  0  0
   36.9401   14.7724   26.9673 C   0  0  0  0  0  0  0  0  0  0  0  0
   37.4562   13.6120   27.4451 C   0  0  0  0  0  0  0  0  0  0  0  0
   36.4954   12.7635   27.7621 N   0  0  0  0  0  0  0  0  0  0  0  0
   37.7474   15.9551   26.5116 C   0  0  0  0  0  0  0  0  0  0  0  0
   39.1262   15.9637   27.1847 C   0  0  0  0  0  0  0  0  0  0  0  0
   39.7106   14.6408   27.4305 N   0  0  0  0  0  0  0  0  0  0  0  0
   38.9183   13.4291   27.5519 C   0  0  0  0  0  0  0  0  0  0  0  0
   41.3736   16.8736   26.9251 N   0  0  0  0  0  0  0  0  0  0  0  0
   41.9197   15.6406   27.4918 C   0  0  0  0  0  0  0  0  0  0  0  0
   41.0409   14.4752   27.5929 C   0  0  0  0  0  0  0  0  0  0  0  0
   42.2663   17.9435   26.5189 C   0  0  0  0  0  0  0  0  0  0  0  0
   41.5650   13.4133   27.8146 O   0  0  0  0  0  0  0  0  0  0  0  0
   40.0672   17.0531   26.7779 C   0  0  0  0  0  0  0  0  0  0  0  0
   39.5399   18.0760   26.3111 O   0  0  0  0  0  0  0  0  0  0  0  0
   39.2457   12.3413   26.4704 C   0  0  0  0  0  0  0  0  0  0  0  0
   39.2399   12.6390   25.1173 C   0  0  0  0  0  0  0  0  0  0  0  0
   39.5404   11.6256   24.2046 C   0  0  0  0  0  0  0  0  0  0  0  0
   39.8339   10.3612   24.6082 C   0  0  0  0  0  0  0  0  0  0  0  0
   39.8517   10.0106   25.9389 C   0  0  0  0  0  0  0  0  0  0  0  0
   39.5593   11.0054   26.8461 C   0  0  0  0  0  0  0  0  0  0  0  0
   39.5788   11.7479   22.8382 O   0  0  0  0  0  0  0  0  0  0  0  0
   40.2232   10.4902   22.4783 C   0  0  0  0  0  0  0  0  0  0  0  0
   40.0898    9.5516   23.5402 O   0  0  0  0  0  0  0  0  0  0  0  0
  1  6  2  0  0  0
  1  2  1  0  0  0
  2  3  1  0  0  0
  3  4  2  0  0  0
  4  5  1  0  0  0
  5  6  1  0  0  0
  6  7  1  0  0  0
  7  8  2  0  0  0
  7 10  1  0  0  0
  8  9  1  0  0  0
  8 13  1  0  0  0
  5  9  2  0  0  0
 10 11  1  0  0  0
 11 12  1  0  0  0
 12 16  1  0  0  0
 12 13  1  0  0  0
 13 21  1  0  0  0
 14 17  1  0  0  0
 14 19  1  0  0  0
 14 15  1  0  0  0
 15 16  1  0  0  0
 16 18  2  0  0  0
 21 22  2  0  0  0
 21 26  1  0  0  0
 22 23  1  0  0  0
 23 24  2  0  0  0
 24 29  1  0  0  0
 24 25  1  0  0  0
 25 26  2  0  0  0
 23 27  1  0  0  0
 27 28  1  0  0  0
 28 29  1  0  0  0
 11 19  1  0  0  0
 19 20  2  0  0  0
M  END
> <minimizedAffinity>
-4.84940

$$$$
