1XOZ


 29 34  0  0  0  0  0  0  0  0999 V2000
   16.6126   33.1436   29.8545 C   0  0  0  0  0  0  0  0  0  0  0  0
   17.1741   33.5040   31.0686 C   0  0  0  0  0  0  0  0  0  0  0  0
   17.1689   34.8202   31.6040 C   0  0  0  0  0  0  0  0  0  0  0  0
   16.5598   35.8684   30.8773 C   0  0  0  0  0  0  0  0  0  0  0  0
   15.9965   35.5142   29.6633 C   0  0  0  0  0  0  0  0  0  0  0  0
   16.0137   34.2065   29.1560 C   0  0  0  0  0  0  0  0  0  0  0  0
   15.3243   34.2495   27.8584 C   0  0  0  0  0  0  0  0  0  0  0  0
   14.9595   35.5466   27.6990 C   0  0  0  0  0  0  0  0  0  0  0  0
   15.3418   36.2747   28.7322 N   0  0  0  0  0  0  0  0  0  0  0  0
   15.0502   33.1469   26.8748 C   0  0  0  0  0  0  0  0  0  0  0  0
   13.8343   33.4865   26.0028 C   0  0  0  0  0  0  0  0  0  0  0  0
   13.6748   34.9082   25.6784 N   0  0  0  0  0  0  0  0  0  0  0  0
   14.2337   35.9782   26.4868 C   0  0  0  0  0  0  0  0  0  0  0  0
   12.7905   32.9160   23.8742 N   0  0  0  0  0  0  0  0  0  0  0  0
   12.3535   34.3051   23.7357 C   0  0  0  0  0  0  0  0  0  0  0  0
   12.9587   35.3125   24.6072 C   0  0  0  0  0  0  0  0  0  0  0  0
   12.4619   31.9457   22.8460 C   0  0  0  0  0  0  0  0  0  0  0  0
   12.7843   36.4671   24.3109 O   0  0  0  0  0  0  0  0  0  0  0  0
   13.4791   32.5050   24.9313 C   0  0  0  0  0  0  0  0  0  0  0  0
   13.8733   31.3413   25.1124 O   0  0  0  0  0  0  0  0  0  0  0  0
   15.2668   36.8803   25.7257 C   0  0  0  0  0  0  0  0  0  0  0  0
   15.0314   38.2282   25.5091 C   0  0  0  0  0  0  0  0  0  0  0  0
   15.9913   38.9770   24.8247 C   0  0  0  0  0  0  0  0  0  0  0  0
   17.1427   38.4188   24.3662 C   0  0  0  0  0  0  0  0  0  0  0  0
   17.4260   37.0849   24.5520 C   0  0  0  0  0  0  0  0  0  0  0  0
   16.4854   36.3397   25.2288 C   0  0  0  0  0  0  0  0  0  0  0  0
   15.9175   40.3146   24.5265 O   0  0  0  0  0  0  0  0  0  0  0  0
   17.2894   40.5666   24.1012 C   0  0  0  0  0  0  0  0  0  0  0  0
   17.9184   39.3444   23.7312 O   0  0  0  0  0  0  0  0  0  0  0  0
  1  6  2  0  0  0
  1  2  1  0  0  0
  2  3  1  0  0  0
  3  4  2  0  0  0
  4  5  1  0  0  0
  5  6  1  0  0  0
  6  7  1  0  0  0
  7  8  2  0  0  0
  7 10  1  0  0  0
  8  9  1  0  0  0
  8 13  1  0  0  0
  5  9  2  0  0  0
 10 11  1  0  0  0
 11 12  1  0  0  0
 12 16  1  0  0  0
 12 13  1  0  0  0
 13 21  1  0  0  0
 14 17  1  0  0  0
 14 19  1  0  0  0
 14 15  1  0  0  0
 15 16  1  0  0  0
 16 18  2  0  0  0
 21 22  2  0  0  0
 21 26  1  0  0  0
 22 23  1  0  0  0
 23 24  2  0  0  0
 24 29  1  0  0  0
 24 25  1  0  0  0
 25 26  2  0  0  0
 23 27  1  0  0  0
 27 28  1  0  0  0
 28 29  1  0  0  0
 11 19  1  0  0  0
 19 20  2  0  0  0
M  END
> <minimizedAffinity>
-5.76491

$$$$
1XOZ


 29 34  0  0  0  0  0  0  0  0999 V2000
   16.4312   39.6333   26.0491 C   0  0  0  0  0  0  0  0  0  0  0  0
   17.3768   39.9110   25.0754 C   0  0  0  0  0  0  0  0  0  0  0  0
   17.9355   38.9489   24.1916 C   0  0  0  0  0  0  0  0  0  0  0  0
   17.5270   37.5986   24.2789 C   0  0  0  0  0  0  0  0  0  0  0  0
   16.5817   37.3150   25.2498 C   0  0  0  0  0  0  0  0  0  0  0  0
   16.0441   38.2832   26.1107 C   0  0  0  0  0  0  0  0  0  0  0  0
   15.0897   37.5858   26.9846 C   0  0  0  0  0  0  0  0  0  0  0  0
   15.1324   36.2897   26.5853 C   0  0  0  0  0  0  0  0  0  0  0  0
   15.9856   36.1305   25.5901 N   0  0  0  0  0  0  0  0  0  0  0  0
   14.2277   38.1212   28.0931 C   0  0  0  0  0  0  0  0  0  0  0  0
   13.0014   37.2248   28.3091 C   0  0  0  0  0  0  0  0  0  0  0  0
   13.2276   35.7920   28.0902 N   0  0  0  0  0  0  0  0  0  0  0  0
   14.2921   35.2721   27.2493 C   0  0  0  0  0  0  0  0  0  0  0  0
   11.3091   36.6710   29.9752 N   0  0  0  0  0  0  0  0  0  0  0  0
   11.3213   35.2868   29.5024 C   0  0  0  0  0  0  0  0  0  0  0  0
   12.4244   34.8575   28.6425 C   0  0  0  0  0  0  0  0  0  0  0  0
   10.4284   37.0595   31.0615 C   0  0  0  0  0  0  0  0  0  0  0  0
   12.5587   33.6716   28.4772 O   0  0  0  0  0  0  0  0  0  0  0  0
   12.0815   37.6005   29.4273 C   0  0  0  0  0  0  0  0  0  0  0  0
   12.1140   38.7919   29.7764 O   0  0  0  0  0  0  0  0  0  0  0  0
   15.3218   34.3660   28.0102 C   0  0  0  0  0  0  0  0  0  0  0  0
   15.7340   33.1473   27.4963 C   0  0  0  0  0  0  0  0  0  0  0  0
   16.6536   32.3875   28.2226 C   0  0  0  0  0  0  0  0  0  0  0  0
   17.1493   32.8104   29.4156 C   0  0  0  0  0  0  0  0  0  0  0  0
   16.7724   34.0111   29.9727 C   0  0  0  0  0  0  0  0  0  0  0  0
   15.8676   34.7680   29.2610 C   0  0  0  0  0  0  0  0  0  0  0  0
   17.1636   31.1657   27.8613 O   0  0  0  0  0  0  0  0  0  0  0  0
   18.2510   31.0380   28.8245 C   0  0  0  0  0  0  0  0  0  0  0  0
   18.0253   31.9016   29.9334 O   0  0  0  0  0  0  0  0  0  0  0  0
  1  6  2  0  0  0
  1  2  1  0  0  0
  2  3  1  0  0  0
  3  4  2  0  0  0
  4  5  1  0  0  0
  5  6  1  0  0  0
  6  7  1  0  0  0
  7  8  2  0  0  0
  7 10  1  0  0  0
  8  9  1  0  0  0
  8 13  1  0  0  0
  5  9  2  0  0  0
 10 11  1  0  0  0
 11 12  1  0  0  0
 12 16  1  0  0  0
 12 13  1  0  0  0
 13 21  1  0  0  0
 14 17  1  0  0  0
 14 19  1  0  0  0
 14 15  1  0  0  0
 15 16  1  0  0  0
 16 18  2  0  0  0
 21 22  2  0  0  0
 21 26  1  0  0  0
 22 23  1  0  0  0
 23 24  2  0  0  0
 24 29  1  0  0  0
 24 25  1  0  0  0
 25 26  2  0  0  0
 23 27  1  0  0  0
 27 28  1  0  0  0
 28 29  1  0  0  0
 11 19  1  0  0  0
 19 20  2  0  0  0
M  END
> <minimizedAffinity>
-5.61292

$$$$
1XOZ


 29 34  0  0  0  0  0  0  0  0999 V2000
   16.3508   32.1727   27.8548 C   0  0  0  0  0  0  0  0  0  0  0  0
   17.1163   31.8917   28.9747 C   0  0  0  0  0  0  0  0  0  0  0  0
   17.2925   32.7714   30.0765 C   0  0  0  0  0  0  0  0  0  0  0  0
   16.6610   34.0359   30.0698 C   0  0  0  0  0  0  0  0  0  0  0  0
   15.8942   34.3223   28.9533 C   0  0  0  0  0  0  0  0  0  0  0  0
   15.7348   33.4362   27.8776 C   0  0  0  0  0  0  0  0  0  0  0  0
   14.8610   34.1080   26.9049 C   0  0  0  0  0  0  0  0  0  0  0  0
   14.5754   35.3110   27.4639 C   0  0  0  0  0  0  0  0  0  0  0  0
   15.1648   35.4372   28.6388 N   0  0  0  0  0  0  0  0  0  0  0  0
   14.3575   33.6327   25.5712 C   0  0  0  0  0  0  0  0  0  0  0  0
   13.0522   34.3472   25.1971 C   0  0  0  0  0  0  0  0  0  0  0  0
   12.9533   35.7420   25.6407 N   0  0  0  0  0  0  0  0  0  0  0  0
   13.7083   36.2782   26.7602 C   0  0  0  0  0  0  0  0  0  0  0  0
   11.6561   34.8928   23.2737 N   0  0  0  0  0  0  0  0  0  0  0  0
   11.3097   36.1647   23.9077 C   0  0  0  0  0  0  0  0  0  0  0  0
   12.1151   36.6157   25.0428 C   0  0  0  0  0  0  0  0  0  0  0  0
   11.1022   34.5540   21.9756 C   0  0  0  0  0  0  0  0  0  0  0  0
   11.9855   37.7643   25.3826 O   0  0  0  0  0  0  0  0  0  0  0  0
   12.4646   34.0198   23.8609 C   0  0  0  0  0  0  0  0  0  0  0  0
   12.7925   32.9224   23.3809 O   0  0  0  0  0  0  0  0  0  0  0  0
   14.6787   37.4483   26.3737 C   0  0  0  0  0  0  0  0  0  0  0  0
   15.6467   37.2944   25.3946 C   0  0  0  0  0  0  0  0  0  0  0  0
   16.4796   38.3751   25.0968 C   0  0  0  0  0  0  0  0  0  0  0  0
   16.3667   39.5663   25.7418 C   0  0  0  0  0  0  0  0  0  0  0  0
   15.4245   39.7728   26.7235 C   0  0  0  0  0  0  0  0  0  0  0  0
   14.5968   38.7124   27.0213 C   0  0  0  0  0  0  0  0  0  0  0  0
   17.4839   38.3933   24.1616 O   0  0  0  0  0  0  0  0  0  0  0  0
   17.7654   39.8230   24.1040 C   0  0  0  0  0  0  0  0  0  0  0  0
   17.2864   40.4630   25.2818 O   0  0  0  0  0  0  0  0  0  0  0  0
  1  6  2  0  0  0
  1  2  1  0  0  0
  2  3  1  0  0  0
  3  4  2  0  0  0
  4  5  1  0  0  0
  5  6  1  0  0  0
  6  7  1  0  0  0
  7  8  2  0  0  0
  7 10  1  0  0  0
  8  9  1  0  0  0
  8 13  1  0  0  0
  5  9  2  0  0  0
 10 11  1  0  0  0
 11 12  1  0  0  0
 12 16  1  0  0  0
 12 13  1  0  0  0
 13 21  1  0  0  0
 14 17  1  0  0  0
 14 19  1  0  0  0
 14 15  1  0  0  0
 15 16  1  0  0  0
 16 18  2  0  0  0
 21 22  2  0  0  0
 21 26  1  0  0  0
 22 23  1  0  0  0
 23 24  2  0  0  0
 24 29  1  0  0  0
 24 25  1  0  0  0
 25 26  2  0  0  0
 23 27  1  0  0  0
 27 28  1  0  0  0
 28 29  1  0  0  0
 11 19  1  0  0  0
 19 20  2  0  0  0
M  END
> <minimizedAffinity>
-5.57023

$$$$
1XOZ


 29 34  0  0  0  0  0  0  0  0999 V2000
   13.2063   34.4846   27.2024 C   0  0  0  0  0  0  0  0  0  0  0  0
   13.8041   33.2543   26.9827 C   0  0  0  0  0  0  0  0  0  0  0  0
   15.1705   33.0676   26.6402 C   0  0  0  0  0  0  0  0  0  0  0  0
   16.0163   34.1915   26.5010 C   0  0  0  0  0  0  0  0  0  0  0  0
   15.4246   35.4238   26.7199 C   0  0  0  0  0  0  0  0  0  0  0  0
   14.0726   35.5824   27.0579 C   0  0  0  0  0  0  0  0  0  0  0  0
   13.8406   37.0272   27.1984 C   0  0  0  0  0  0  0  0  0  0  0  0
   15.0426   37.6011   26.9398 C   0  0  0  0  0  0  0  0  0  0  0  0
   15.9537   36.6852   26.6663 N   0  0  0  0  0  0  0  0  0  0  0  0
   12.5829   37.7729   27.5452 C   0  0  0  0  0  0  0  0  0  0  0  0
   12.9134   39.1399   28.1587 C   0  0  0  0  0  0  0  0  0  0  0  0
   14.1107   39.7942   27.6202 N   0  0  0  0  0  0  0  0  0  0  0  0
   15.1979   39.0696   26.9847 C   0  0  0  0  0  0  0  0  0  0  0  0
   11.9367   41.3360   28.5703 N   0  0  0  0  0  0  0  0  0  0  0  0
   13.2482   41.9427   28.3436 C   0  0  0  0  0  0  0  0  0  0  0  0
   14.2891   41.1294   27.7146 C   0  0  0  0  0  0  0  0  0  0  0  0
   10.7962   42.1726   28.8961 C   0  0  0  0  0  0  0  0  0  0  0  0
   15.2624   41.7092   27.3046 O   0  0  0  0  0  0  0  0  0  0  0  0
   11.7549   40.0236   28.4973 C   0  0  0  0  0  0  0  0  0  0  0  0
   10.6716   39.4461   28.6848 O   0  0  0  0  0  0  0  0  0  0  0  0
   15.4448   39.4720   25.4890 C   0  0  0  0  0  0  0  0  0  0  0  0
   14.4383   39.3912   24.5404 C   0  0  0  0  0  0  0  0  0  0  0  0
   14.7224   39.7647   23.2250 C   0  0  0  0  0  0  0  0  0  0  0  0
   15.9553   40.2003   22.8539 C   0  0  0  0  0  0  0  0  0  0  0  0
   16.9914   40.2978   23.7546 C   0  0  0  0  0  0  0  0  0  0  0  0
   16.7186   39.9340   25.0551 C   0  0  0  0  0  0  0  0  0  0  0  0
   13.8473   39.7456   22.1680 O   0  0  0  0  0  0  0  0  0  0  0  0
   14.6078   40.5042   21.1817 C   0  0  0  0  0  0  0  0  0  0  0  0
   15.9895   40.5033   21.5240 O   0  0  0  0  0  0  0  0  0  0  0  0
  1  6  2  0  0  0
  1  2  1  0  0  0
  2  3  1  0  0  0
  3  4  2  0  0  0
  4  5  1  0  0  0
  5  6  1  0  0  0
  6  7  1  0  0  0
  7  8  2  0  0  0
  7 10  1  0  0  0
  8  9  1  0  0  0
  8 13  1  0  0  0
  5  9  2  0  0  0
 10 11  1  0  0  0
 11 12  1  0  0  0
 12 16  1  0  0  0
 12 13  1  0  0  0
 13 21  1  0  0  0
 14 17  1  0  0  0
 14 19  1  0  0  0
 14 15  1  0  0  0
 15 16  1  0  0  0
 16 18  2  0  0  0
 21 22  2  0  0  0
 21 26  1  0  0  0
 22 23  1  0  0  0
 23 24  2  0  0  0
 24 29  1  0  0  0
 24 25  1  0  0  0
 25 26  2  0  0  0
 23 27  1  0  0  0
 27 28  1  0  0  0
 28 29  1  0  0  0
 11 19  1  0  0  0
 19 20  2  0  0  0
M  END
> <minimizedAffinity>
-5.44051

$$$$
1XOZ


 29 34  0  0  0  0  0  0  0  0999 V2000
   15.3747   39.6193   23.3034 C   0  0  0  0  0  0  0  0  0  0  0  0
   16.3589   40.5611   23.0511 C   0  0  0  0  0  0  0  0  0  0  0  0
   17.6816   40.5081   23.5673 C   0  0  0  0  0  0  0  0  0  0  0  0
   18.0630   39.4354   24.4050 C   0  0  0  0  0  0  0  0  0  0  0  0
   17.0838   38.4907   24.6604 C   0  0  0  0  0  0  0  0  0  0  0  0
   15.7841   38.5646   24.1381 C   0  0  0  0  0  0  0  0  0  0  0  0
   15.0605   37.3883   24.6418 C   0  0  0  0  0  0  0  0  0  0  0  0
   15.9636   36.7228   25.4051 C   0  0  0  0  0  0  0  0  0  0  0  0
   17.1251   37.3507   25.4173 N   0  0  0  0  0  0  0  0  0  0  0  0
   13.6402   36.9566   24.4085 C   0  0  0  0  0  0  0  0  0  0  0  0
   13.4945   35.4412   24.6000 C   0  0  0  0  0  0  0  0  0  0  0  0
   14.3496   34.8569   25.6389 N   0  0  0  0  0  0  0  0  0  0  0  0
   15.5878   35.4687   26.0897 C   0  0  0  0  0  0  0  0  0  0  0  0
   11.8231   33.7248   25.0545 N   0  0  0  0  0  0  0  0  0  0  0  0
   12.8184   32.9855   25.8308 C   0  0  0  0  0  0  0  0  0  0  0  0
   14.0454   33.6786   26.2241 C   0  0  0  0  0  0  0  0  0  0  0  0
   10.4787   33.1977   24.9083 C   0  0  0  0  0  0  0  0  0  0  0  0
   14.7249   33.1505   27.0673 O   0  0  0  0  0  0  0  0  0  0  0  0
   12.1171   34.8745   24.4609 C   0  0  0  0  0  0  0  0  0  0  0  0
   11.3222   35.5467   23.7836 O   0  0  0  0  0  0  0  0  0  0  0  0
   15.5948   35.8491   27.6114 C   0  0  0  0  0  0  0  0  0  0  0  0
   14.6332   36.6856   28.1543 C   0  0  0  0  0  0  0  0  0  0  0  0
   14.6947   36.9857   29.5169 C   0  0  0  0  0  0  0  0  0  0  0  0
   15.6706   36.4826   30.3183 C   0  0  0  0  0  0  0  0  0  0  0  0
   16.6512   35.6491   29.8308 C   0  0  0  0  0  0  0  0  0  0  0  0
   16.5959   35.3457   28.4880 C   0  0  0  0  0  0  0  0  0  0  0  0
   13.8281   37.7921   30.2113 O   0  0  0  0  0  0  0  0  0  0  0  0
   14.2150   37.4776   31.5817 C   0  0  0  0  0  0  0  0  0  0  0  0
   15.5232   36.9167   31.6034 O   0  0  0  0  0  0  0  0  0  0  0  0
  1  6  2  0  0  0
  1  2  1  0  0  0
  2  3  1  0  0  0
  3  4  2  0  0  0
  4  5  1  0  0  0
  5  6  1  0  0  0
  6  7  1  0  0  0
  7  8  2  0  0  0
  7 10  1  0  0  0
  8  9  1  0  0  0
  8 13  1  0  0  0
  5  9  2  0  0  0
 10 11  1  0  0  0
 11 12  1  0  0  0
 12 16  1  0  0  0
 12 13  1  0  0  0
 13 21  1  0  0  0
 14 17  1  0  0  0
 14 19  1  0  0  0
 14 15  1  0  0  0
 15 16  1  0  0  0
 16 18  2  0  0  0
 21 22  2  0  0  0
 21 26  1  0  0  0
 22 23  1  0  0  0
 23 24  2  0  0  0
 24 29  1  0  0  0
 24 25  1  0  0  0
 25 26  2  0  0  0
 23 27  1  0  0  0
 27 28  1  0  0  0
 28 29  1  0  0  0
 11 19  1  0  0  0
 19 20  2  0  0  0
M  END
> <minimizedAffinity>
-5.43191

$$$$
