
 OpenBabel10152117013D

 48 49  0  0  1  0  0  0  0  0999 V2000
   18.7740   41.8030    8.9310 C   0  0  0  0  0  0  0  0  0  0  0  0
   19.4580   42.2650    7.8180 C   0  0  0  0  0  0  0  0  0  0  0  0
   19.9920   43.5750    7.6820 C   0  0  0  0  0  0  0  0  0  0  0  0
   19.8360   44.5060    8.7340 C   0  0  0  0  0  0  0  0  0  0  0  0
   19.1530   44.0500    9.8490 C   0  0  0  0  0  0  0  0  0  0  0  0
   18.6350   42.7510    9.9590 C   0  0  0  0  0  0  0  0  0  0  0  0
   17.9880   42.6670   11.2760 C   0  0  0  0  0  0  0  0  0  0  0  0
   18.1670   43.8920   11.8330 C   0  0  0  0  0  0  0  0  0  0  0  0
   18.8360   44.6870   11.0180 N   0  0  0  0  0  0  0  0  0  0  0  0
   17.2680   41.5190   11.9260 C   0  0  0  0  0  0  0  0  0  0  0  0
   17.2940   41.6560   13.4540 C   0  0  1  0  0  0  0  0  0  0  0  0
   17.2290   43.0320   13.9590 N   0  0  0  0  0  0  0  0  0  0  0  0
   17.6390   44.1880   13.1800 C   0  0  2  0  0  0  0  0  0  0  0  0
   16.1330   40.8980   15.4600 N   0  0  0  0  0  0  0  0  0  0  0  0
   16.3790   42.2030   16.0740 C   0  0  0  0  0  0  0  0  0  0  0  0
   16.8080   43.3050   15.2130 C   0  0  0  0  0  0  0  0  0  0  0  0
   15.4190   39.8710   16.1970 C   0  0  0  0  0  0  0  0  0  0  0  0
   16.7550   44.4150   15.6790 O   0  0  0  0  0  0  0  0  0  0  0  0
   16.4890   45.2220   12.9200 C   0  0  0  0  0  0  0  0  0  0  0  0
   16.5640   46.5230   13.3880 C   0  0  0  0  0  0  0  0  0  0  0  0
   15.5060   47.3960   13.1220 C   0  0  0  0  0  0  0  0  0  0  0  0
   14.4100   47.0010   12.4210 C   0  0  0  0  0  0  0  0  0  0  0  0
   14.2830   45.7200   11.9350 C   0  0  0  0  0  0  0  0  0  0  0  0
   15.3240   44.8540   12.1910 C   0  0  0  0  0  0  0  0  0  0  0  0
   15.4190   48.7090   13.5100 O   0  0  0  0  0  0  0  0  0  0  0  0
   14.2840   49.1470   12.7060 C   0  0  0  0  0  0  0  0  0  0  0  0
   13.5160   48.0230   12.2910 O   0  0  0  0  0  0  0  0  0  0  0  0
   16.5590   40.6140   14.2360 C   0  0  0  0  0  0  0  0  0  0  0  0
   16.3900   39.5260   13.6610 O   0  0  0  0  0  0  0  0  0  0  0  0
   18.3980   40.8440    8.9980 H   0  0  0  0  0  0  0  0  0  0  0  0
   19.5890   41.6110    7.0310 H   0  0  0  0  0  0  0  0  0  0  0  0
   19.5180   41.6070    7.0250 H   0  0  0  0  0  0  0  0  0  0  0  0
   20.4920   43.8440    6.8210 H   0  0  0  0  0  0  0  0  0  0  0  0
   20.2070   45.4670    8.6740 H   0  0  0  0  0  0  0  0  0  0  0  0
   17.7460   40.6030   11.6480 H   0  0  0  0  0  0  0  0  0  0  0  0
   16.2500   41.5220   11.5980 H   0  0  0  0  0  0  0  0  0  0  0  0
   18.3010   41.3800   13.6880 H   0  0  0  0  0  0  0  0  0  0  0  0
   18.4070   44.5810   13.8130 H   0  0  0  0  0  0  0  0  0  0  0  0
   17.1380   42.0660   16.8160 H   0  0  0  0  0  0  0  0  0  0  0  0
   15.4190   42.5090   16.4360 H   0  0  0  0  0  0  0  0  0  0  0  0
   15.3350   38.9920   15.5930 H   0  0  0  0  0  0  0  0  0  0  0  0
   14.4420   40.2270   16.4470 H   0  0  0  0  0  0  0  0  0  0  0  0
   15.9550   39.6390   17.0940 H   0  0  0  0  0  0  0  0  0  0  0  0
   17.3860   46.8430   13.9240 H   0  0  0  0  0  0  0  0  0  0  0  0
   13.4490   45.4220   11.4050 H   0  0  0  0  0  0  0  0  0  0  0  0
   15.2540   43.8870   11.8350 H   0  0  0  0  0  0  0  0  0  0  0  0
   14.0690   50.1290   12.4720 H   0  0  0  0  0  0  0  0  0  0  0  0
   15.1960   49.5370   12.4230 H   0  0  0  0  0  0  0  0  0  0  0  0
  1 30  1  0  0  0  0
  1  6  1  0  0  0  0
  3  4  2  0  0  0  0
  4  5  1  0  0  0  0
  5  6  2  0  0  0  0
  5  9  1  0  0  0  0
  6  7  1  0  0  0  0
  7  8  2  0  0  0  0
  7 10  1  0  0  0  0
  8 13  1  0  0  0  0
  9  8  1  0  0  0  0
 10 11  1  0  0  0  0
 11 37  1  1  0  0  0
 11 12  1  0  0  0  0
 11 28  1  0  0  0  0
 12 16  1  0  0  0  0
 13 38  1  1  0  0  0
 13 12  1  0  0  0  0
 14 15  1  0  0  0  0
 14 17  1  0  0  0  0
 15 40  1  0  0  0  0
 15 39  1  0  0  0  0
 16 18  2  0  0  0  0
 16 15  1  0  0  0  0
 17 42  1  0  0  0  0
 17 43  1  0  0  0  0
 19 13  1  0  0  0  0
 19 20  1  0  0  0  0
 20 44  1  0  0  0  0
 21 20  2  0  0  0  0
 21 25  1  0  0  0  0
 22 21  1  0  0  0  0
 23 24  1  0  0  0  0
 23 22  2  0  0  0  0
 24 19  2  0  0  0  0
 27 22  1  0  0  0  0
 27 26  1  0  0  0  0
 28 14  1  0  0  0  0
 29 28  2  0  0  0  0
 31  2  1  0  0  0  0
 33  3  1  0  0  0  0
 34  4  1  0  0  0  0
 35 10  1  0  0  0  0
 36 10  1  0  0  0  0
 41 17  1  0  0  0  0
 45 23  1  0  0  0  0
 46 24  1  0  0  0  0
 47 26  1  0  0  0  0
 48 26  1  0  0  0  0
M  END
>  <Pose>
1

>  <Score>
-3.57

$$$$

 OpenBabel10152117013D

 48 49  0  0  1  0  0  0  0  0999 V2000
   19.1680   42.3170    7.7250 C   0  0  0  0  0  0  0  0  0  0  0  0
   19.9600   42.9670    6.7920 C   0  0  0  0  0  0  0  0  0  0  0  0
   20.5820   44.2280    6.9960 C   0  0  0  0  0  0  0  0  0  0  0  0
   20.4040   44.9040    8.2250 C   0  0  0  0  0  0  0  0  0  0  0  0
   19.6140   44.2590    9.1610 C   0  0  0  0  0  0  0  0  0  0  0  0
   19.0110   43.0130    8.9360 C   0  0  0  0  0  0  0  0  0  0  0  0
   18.2630   42.6810   10.1570 C   0  0  0  0  0  0  0  0  0  0  0  0
   18.4750   43.7290   10.9930 C   0  0  0  0  0  0  0  0  0  0  0  0
   19.2500   44.6350   10.4260 N   0  0  0  0  0  0  0  0  0  0  0  0
   17.4290   41.4730   10.4790 C   0  0  0  0  0  0  0  0  0  0  0  0
   17.3490   41.2560   11.9960 C   0  0  1  0  0  0  0  0  0  0  0  0
   17.3310   42.4810   12.8030 N   0  0  0  0  0  0  0  0  0  0  0  0
   17.8670   43.7490   12.3390 C   0  0  2  0  0  0  0  0  0  0  0  0
   15.9980   40.1510   13.6990 N   0  0  0  0  0  0  0  0  0  0  0  0
   16.2760   41.2590   14.6130 C   0  0  0  0  0  0  0  0  0  0  0  0
   16.8350   42.4920   14.0590 C   0  0  0  0  0  0  0  0  0  0  0  0
   15.1700   39.0410   14.1340 C   0  0  0  0  0  0  0  0  0  0  0  0
   16.8150   43.4670   14.7660 O   0  0  0  0  0  0  0  0  0  0  0  0
   16.8050   44.9000   12.2590 C   0  0  0  0  0  0  0  0  0  0  0  0
   16.9780   46.0960   12.9380 C   0  0  0  0  0  0  0  0  0  0  0  0
   15.9950   47.0810   12.8260 C   0  0  0  0  0  0  0  0  0  0  0  0
   14.8780   46.8970   12.0740 C   0  0  0  0  0  0  0  0  0  0  0  0
   14.6540   45.7290   11.3810 C   0  0  0  0  0  0  0  0  0  0  0  0
   15.6210   44.7520   11.4840 C   0  0  0  0  0  0  0  0  0  0  0  0
   16.0090   48.3150   13.4280 O   0  0  0  0  0  0  0  0  0  0  0  0
   14.9190   48.9690   12.7130 C   0  0  0  0  0  0  0  0  0  0  0  0
   14.0680   47.9940   12.1200 O   0  0  0  0  0  0  0  0  0  0  0  0
   16.4960   40.1220   12.4690 C   0  0  0  0  0  0  0  0  0  0  0  0
   16.3040   39.2100   11.6480 O   0  0  0  0  0  0  0  0  0  0  0  0
   18.7300   41.3990    7.5460 H   0  0  0  0  0  0  0  0  0  0  0  0
   20.1080   42.5010    5.8830 H   0  0  0  0  0  0  0  0  0  0  0  0
   20.0380   42.5040    5.8730 H   0  0  0  0  0  0  0  0  0  0  0  0
   21.1600   44.6470    6.2520 H   0  0  0  0  0  0  0  0  0  0  0  0
   20.8370   45.8220    8.4120 H   0  0  0  0  0  0  0  0  0  0  0  0
   17.8690   40.6110   10.0230 H   0  0  0  0  0  0  0  0  0  0  0  0
   16.4400   41.6290   10.1010 H   0  0  0  0  0  0  0  0  0  0  0  0
   18.3170   40.8570   12.2180 H   0  0  0  0  0  0  0  0  0  0  0  0
   18.6080   43.9280   13.0900 H   0  0  0  0  0  0  0  0  0  0  0  0
   16.9680   40.8990   15.3460 H   0  0  0  0  0  0  0  0  0  0  0  0
   15.3130   41.5470   14.9800 H   0  0  0  0  0  0  0  0  0  0  0  0
   15.0780   38.3320   13.3380 H   0  0  0  0  0  0  0  0  0  0  0  0
   14.2000   39.4040   14.4030 H   0  0  0  0  0  0  0  0  0  0  0  0
   15.6220   38.5700   14.9820 H   0  0  0  0  0  0  0  0  0  0  0  0
   17.8180   46.2550   13.5160 H   0  0  0  0  0  0  0  0  0  0  0  0
   13.8040   45.5910   10.8120 H   0  0  0  0  0  0  0  0  0  0  0  0
   15.4780   43.8680   10.9730 H   0  0  0  0  0  0  0  0  0  0  0  0
   14.7850   49.9900   12.6470 H   0  0  0  0  0  0  0  0  0  0  0  0
   15.8620   49.3270   12.4950 H   0  0  0  0  0  0  0  0  0  0  0  0
  1  6  1  0  0  0  0
  3  4  2  0  0  0  0
  4 34  1  0  0  0  0
  4  5  1  0  0  0  0
  5  9  1  0  0  0  0
  6  5  2  0  0  0  0
  6  7  1  0  0  0  0
  7 10  1  0  0  0  0
  7  8  2  0  0  0  0
  8 13  1  0  0  0  0
  9  8  1  0  0  0  0
 10 11  1  0  0  0  0
 11 37  1  1  0  0  0
 11 28  1  0  0  0  0
 11 12  1  0  0  0  0
 12 16  1  0  0  0  0
 13 12  1  0  0  0  0
 13 38  1  1  0  0  0
 14 17  1  0  0  0  0
 14 15  1  0  0  0  0
 15 40  1  0  0  0  0
 15 39  1  0  0  0  0
 16 15  1  0  0  0  0
 16 18  2  0  0  0  0
 17 42  1  0  0  0  0
 17 43  1  0  0  0  0
 19 13  1  0  0  0  0
 19 20  1  0  0  0  0
 20 44  1  0  0  0  0
 21 20  2  0  0  0  0
 21 25  1  0  0  0  0
 22 27  1  0  0  0  0
 22 21  1  0  0  0  0
 23 24  1  0  0  0  0
 23 22  2  0  0  0  0
 24 19  2  0  0  0  0
 27 26  1  0  0  0  0
 28 14  1  0  0  0  0
 29 28  2  0  0  0  0
 30  1  1  0  0  0  0
 32  2  1  0  0  0  0
 33  3  1  0  0  0  0
 35 10  1  0  0  0  0
 36 10  1  0  0  0  0
 41 17  1  0  0  0  0
 45 23  1  0  0  0  0
 46 24  1  0  0  0  0
 47 26  1  0  0  0  0
 48 26  1  0  0  0  0
M  END
>  <Pose>
1

>  <Score>
-3.39

$$$$

 OpenBabel10152117013D

 48 49  0  0  1  0  0  0  0  0999 V2000
   18.6900   49.5220    3.5790 C   0  0  0  0  0  0  0  0  0  0  0  0
   18.9600   50.8280    3.9530 C   0  0  0  0  0  0  0  0  0  0  0  0
   20.0050   51.2180    4.8340 C   0  0  0  0  0  0  0  0  0  0  0  0
   20.8510   50.2340    5.3930 C   0  0  0  0  0  0  0  0  0  0  0  0
   20.5860   48.9270    5.0230 C   0  0  0  0  0  0  0  0  0  0  0  0
   19.5490   48.5670    4.1500 C   0  0  0  0  0  0  0  0  0  0  0  0
   19.5990   47.1040    4.0180 C   0  0  0  0  0  0  0  0  0  0  0  0
   20.6370   46.7170    4.8020 C   0  0  0  0  0  0  0  0  0  0  0  0
   21.2060   47.7600    5.3790 N   0  0  0  0  0  0  0  0  0  0  0  0
   18.7290   46.1780    3.2150 C   0  0  0  0  0  0  0  0  0  0  0  0
   19.4750   44.8760    2.8920 C   0  0  1  0  0  0  0  0  0  0  0  0
   20.3980   44.4090    3.9320 N   0  0  0  0  0  0  0  0  0  0  0  0
   20.9940   45.2890    4.9230 C   0  0  2  0  0  0  0  0  0  0  0  0
   19.0810   42.5580    2.2450 N   0  0  0  0  0  0  0  0  0  0  0  0
   20.2340   42.1560    3.0490 C   0  0  0  0  0  0  0  0  0  0  0  0
   20.7800   43.1160    4.0090 C   0  0  0  0  0  0  0  0  0  0  0  0
   18.3190   41.5600    1.5180 C   0  0  0  0  0  0  0  0  0  0  0  0
   21.5490   42.6890    4.8320 O   0  0  0  0  0  0  0  0  0  0  0  0
   20.6220   44.9280    6.4030 C   0  0  0  0  0  0  0  0  0  0  0  0
   19.3470   44.5120    6.7490 C   0  0  0  0  0  0  0  0  0  0  0  0
   19.0800   44.2040    8.0850 C   0  0  0  0  0  0  0  0  0  0  0  0
   20.0330   44.3050    9.0490 C   0  0  0  0  0  0  0  0  0  0  0  0
   21.3150   44.7150    8.7600 C   0  0  0  0  0  0  0  0  0  0  0  0
   21.5880   45.0180    7.4440 C   0  0  0  0  0  0  0  0  0  0  0  0
   17.8790   43.7810    8.5970 O   0  0  0  0  0  0  0  0  0  0  0  0
   18.2960   43.3480    9.9260 C   0  0  0  0  0  0  0  0  0  0  0  0
   19.5370   43.9550   10.2700 O   0  0  0  0  0  0  0  0  0  0  0  0
   18.7090   43.8280    2.1480 C   0  0  0  0  0  0  0  0  0  0  0  0
   17.7460   44.2360    1.4790 O   0  0  0  0  0  0  0  0  0  0  0  0
   17.9230   49.2710    2.9350 H   0  0  0  0  0  0  0  0  0  0  0  0
   18.3600   51.5720    3.5630 H   0  0  0  0  0  0  0  0  0  0  0  0
   18.3040   51.5400    3.5950 H   0  0  0  0  0  0  0  0  0  0  0  0
   20.1440   52.2150    5.0630 H   0  0  0  0  0  0  0  0  0  0  0  0
   21.6200   50.4760    6.0390 H   0  0  0  0  0  0  0  0  0  0  0  0
   18.4520   46.6600    2.3010 H   0  0  0  0  0  0  0  0  0  0  0  0
   17.8580   45.9410    3.7900 H   0  0  0  0  0  0  0  0  0  0  0  0
   20.1480   45.1880    2.1200 H   0  0  0  0  0  0  0  0  0  0  0  0
   22.0320   45.1360    4.7130 H   0  0  0  0  0  0  0  0  0  0  0  0
   21.0220   41.9050    2.3700 H   0  0  0  0  0  0  0  0  0  0  0  0
   19.8670   41.3550    3.6570 H   0  0  0  0  0  0  0  0  0  0  0  0
   17.5190   42.0360    0.9900 H   0  0  0  0  0  0  0  0  0  0  0  0
   17.9170   40.8460    2.2070 H   0  0  0  0  0  0  0  0  0  0  0  0
   18.9590   41.0610    0.8200 H   0  0  0  0  0  0  0  0  0  0  0  0
   18.6080   44.4300    6.0340 H   0  0  0  0  0  0  0  0  0  0  0  0
   22.0370   44.7930    9.4940 H   0  0  0  0  0  0  0  0  0  0  0  0
   22.5420   45.3250    7.2000 H   0  0  0  0  0  0  0  0  0  0  0  0
   17.7680   42.6970   10.5290 H   0  0  0  0  0  0  0  0  0  0  0  0
   18.0220   42.5880    9.2850 H   0  0  0  0  0  0  0  0  0  0  0  0
  1  6  1  0  0  0  0
  3 33  1  0  0  0  0
  3  4  2  0  0  0  0
  4 34  1  0  0  0  0
  5  9  1  0  0  0  0
  5  4  1  0  0  0  0
  6  5  2  0  0  0  0
  7  6  1  0  0  0  0
  7  8  2  0  0  0  0
  8 13  1  0  0  0  0
  8  9  1  0  0  0  0
 10 36  1  0  0  0  0
 10  7  1  0  0  0  0
 11 37  1  6  0  0  0
 11 10  1  0  0  0  0
 11 12  1  0  0  0  0
 12 16  1  0  0  0  0
 12 13  1  0  0  0  0
 13 38  1  6  0  0  0
 13 19  1  0  0  0  0
 14 15  1  0  0  0  0
 15 40  1  0  0  0  0
 15 16  1  0  0  0  0
 16 18  2  0  0  0  0
 17 42  1  0  0  0  0
 17 14  1  0  0  0  0
 19 20  2  0  0  0  0
 19 24  1  0  0  0  0
 20 21  1  0  0  0  0
 21 25  1  0  0  0  0
 21 22  2  0  0  0  0
 22 27  1  0  0  0  0
 23 22  1  0  0  0  0
 23 45  1  0  0  0  0
 24 23  2  0  0  0  0
 26 27  1  0  0  0  0
 26 47  1  0  0  0  0
 28 14  1  0  0  0  0
 28 11  1  0  0  0  0
 29 28  2  0  0  0  0
 30  1  1  0  0  0  0
 32  2  1  0  0  0  0
 35 10  1  0  0  0  0
 39 15  1  0  0  0  0
 41 17  1  0  0  0  0
 43 17  1  0  0  0  0
 44 20  1  0  0  0  0
 46 24  1  0  0  0  0
 48 26  1  0  0  0  0
M  END
>  <Pose>
1

>  <Score>
-3.32

$$$$

 OpenBabel10152117013D

 48 49  0  0  1  0  0  0  0  0999 V2000
   15.4730   44.3950   13.6770 C   0  0  0  0  0  0  0  0  0  0  0  0
   16.0040   44.5020   14.9520 C   0  0  0  0  0  0  0  0  0  0  0  0
   17.3930   44.5530   15.2490 C   0  0  0  0  0  0  0  0  0  0  0  0
   18.3360   44.4900   14.1980 C   0  0  0  0  0  0  0  0  0  0  0  0
   17.8110   44.3840   12.9210 C   0  0  0  0  0  0  0  0  0  0  0  0
   16.4350   44.3370   12.6530 C   0  0  0  0  0  0  0  0  0  0  0  0
   16.2940   44.2200   11.1950 C   0  0  0  0  0  0  0  0  0  0  0  0
   17.5660   44.2080   10.7210 C   0  0  0  0  0  0  0  0  0  0  0  0
   18.4380   44.3030   11.7070 N   0  0  0  0  0  0  0  0  0  0  0  0
   15.0550   44.1280   10.3490 C   0  0  0  0  0  0  0  0  0  0  0  0
   15.3330   44.6200    8.9230 C   0  0  1  0  0  0  0  0  0  0  0  0
   16.6760   44.3280    8.4110 N   0  0  0  0  0  0  0  0  0  0  0  0
   17.8240   44.0970    9.2700 C   0  0  2  0  0  0  0  0  0  0  0  0
   14.4670   44.4710    6.6480 N   0  0  0  0  0  0  0  0  0  0  0  0
   15.8390   44.5140    6.1420 C   0  0  0  0  0  0  0  0  0  0  0  0
   16.9340   44.2890    7.0860 C   0  0  0  0  0  0  0  0  0  0  0  0
   13.3540   44.3770    5.7220 C   0  0  0  0  0  0  0  0  0  0  0  0
   18.0230   44.0720    6.6180 O   0  0  0  0  0  0  0  0  0  0  0  0
   18.4690   42.6770    9.1060 C   0  0  0  0  0  0  0  0  0  0  0  0
   19.7880   42.5200    8.7120 C   0  0  0  0  0  0  0  0  0  0  0  0
   20.3030   41.2280    8.5840 C   0  0  0  0  0  0  0  0  0  0  0  0
   19.5450   40.1270    8.8330 C   0  0  0  0  0  0  0  0  0  0  0  0
   18.2300   40.2250    9.2260 C   0  0  0  0  0  0  0  0  0  0  0  0
   17.7150   41.4970    9.3560 C   0  0  0  0  0  0  0  0  0  0  0  0
   21.5790   40.8960    8.2060 O   0  0  0  0  0  0  0  0  0  0  0  0
   21.5950   39.4780    8.5470 C   0  0  0  0  0  0  0  0  0  0  0  0
   20.2640   38.9830    8.6400 O   0  0  0  0  0  0  0  0  0  0  0  0
   14.2030   44.5280    7.9470 C   0  0  0  0  0  0  0  0  0  0  0  0
   13.0630   44.5030    8.4410 O   0  0  0  0  0  0  0  0  0  0  0  0
   14.4580   44.3620   13.4940 H   0  0  0  0  0  0  0  0  0  0  0  0
   15.3440   44.5490   15.7430 H   0  0  0  0  0  0  0  0  0  0  0  0
   15.3200   44.4850   15.7240 H   0  0  0  0  0  0  0  0  0  0  0  0
   17.7110   44.6350   16.2270 H   0  0  0  0  0  0  0  0  0  0  0  0
   19.3530   44.5220   14.3720 H   0  0  0  0  0  0  0  0  0  0  0  0
   14.2870   44.7320   10.7860 H   0  0  0  0  0  0  0  0  0  0  0  0
   14.7450   43.1050   10.3060 H   0  0  0  0  0  0  0  0  0  0  0  0
   15.3700   45.6820    9.0540 H   0  0  0  0  0  0  0  0  0  0  0  0
   18.4720   44.8810    8.9370 H   0  0  0  0  0  0  0  0  0  0  0  0
   15.9870   45.4810    5.7090 H   0  0  0  0  0  0  0  0  0  0  0  0
   15.8970   43.6850    5.4670 H   0  0  0  0  0  0  0  0  0  0  0  0
   12.4350   44.3580    6.2690 H   0  0  0  0  0  0  0  0  0  0  0  0
   13.4440   43.4810    5.1450 H   0  0  0  0  0  0  0  0  0  0  0  0
   13.3620   45.2240    5.0680 H   0  0  0  0  0  0  0  0  0  0  0  0
   20.3790   43.3430    8.5160 H   0  0  0  0  0  0  0  0  0  0  0  0
   17.6570   39.3880    9.4120 H   0  0  0  0  0  0  0  0  0  0  0  0
   16.7320   41.5980    9.6520 H   0  0  0  0  0  0  0  0  0  0  0  0
   22.4470   38.9150    8.6970 H   0  0  0  0  0  0  0  0  0  0  0  0
   22.1820   40.0780    9.1470 H   0  0  0  0  0  0  0  0  0  0  0  0
  2 31  1  0  0  0  0
  3 33  1  0  0  0  0
  4 34  1  0  0  0  0
  4  3  2  0  0  0  0
  5  4  1  0  0  0  0
  6  5  1  0  0  0  0
  6  1  2  0  0  0  0
  7  6  1  0  0  0  0
  8  7  2  0  0  0  0
  8  9  1  0  0  0  0
  9  5  2  0  0  0  0
 10 35  1  0  0  0  0
 10  7  1  0  0  0  0
 11 37  1  1  0  0  0
 11 10  1  0  0  0  0
 12 11  1  0  0  0  0
 12 13  1  0  0  0  0
 13 38  1  6  0  0  0
 13  8  1  0  0  0  0
 14 28  1  0  0  0  0
 15 14  1  0  0  0  0
 15 16  1  0  0  0  0
 16 12  1  0  0  0  0
 17 41  1  0  0  0  0
 17 14  1  0  0  0  0
 18 16  2  0  0  0  0
 19 13  1  0  0  0  0
 19 24  1  0  0  0  0
 20 19  2  0  0  0  0
 21 20  1  0  0  0  0
 21 22  2  0  0  0  0
 22 23  1  0  0  0  0
 23 24  2  0  0  0  0
 23 45  1  0  0  0  0
 24 46  1  0  0  0  0
 25 21  1  0  0  0  0
 26 27  1  0  0  0  0
 26 47  1  0  0  0  0
 26 48  1  0  0  0  0
 27 22  1  0  0  0  0
 28 29  2  0  0  0  0
 28 11  1  0  0  0  0
 30  1  1  0  0  0  0
 36 10  1  0  0  0  0
 39 15  1  0  0  0  0
 40 15  1  0  0  0  0
 42 17  1  0  0  0  0
 43 17  1  0  0  0  0
 44 20  1  0  0  0  0
M  END
>  <Pose>
1

>  <Score>
-3.10

$$$$

 OpenBabel10152117013D

 48 49  0  0  1  0  0  0  0  0999 V2000
   17.8240   44.1290   11.5690 C   0  0  0  0  0  0  0  0  0  0  0  0
   16.8750   44.8620   12.2630 C   0  0  0  0  0  0  0  0  0  0  0  0
   15.7020   45.4190   11.6860 C   0  0  0  0  0  0  0  0  0  0  0  0
   15.4460   45.2380   10.3080 C   0  0  0  0  0  0  0  0  0  0  0  0
   16.3910   44.5060    9.6090 C   0  0  0  0  0  0  0  0  0  0  0  0
   17.5420   43.9650   10.2020 C   0  0  0  0  0  0  0  0  0  0  0  0
   18.2790   43.2720    9.1350 C   0  0  0  0  0  0  0  0  0  0  0  0
   17.5270   43.4490    8.0190 C   0  0  0  0  0  0  0  0  0  0  0  0
   16.4440   44.1550    8.2870 N   0  0  0  0  0  0  0  0  0  0  0  0
   19.5780   42.5180    9.1920 C   0  0  0  0  0  0  0  0  0  0  0  0
   19.6590   41.4900    8.0560 C   0  0  1  0  0  0  0  0  0  0  0  0
   19.0220   41.8940    6.7990 N   0  0  0  0  0  0  0  0  0  0  0  0
   17.9610   42.8840    6.7250 C   0  0  2  0  0  0  0  0  0  0  0  0
   21.2690   40.1750    6.7810 N   0  0  0  0  0  0  0  0  0  0  0  0
   20.4260   40.3240    5.5950 C   0  0  0  0  0  0  0  0  0  0  0  0
   19.3680   41.3360    5.6190 C   0  0  0  0  0  0  0  0  0  0  0  0
   22.5070   39.4220    6.7010 C   0  0  0  0  0  0  0  0  0  0  0  0
   18.8610   41.6210    4.5640 O   0  0  0  0  0  0  0  0  0  0  0  0
   18.3220   44.1430    5.8620 C   0  0  0  0  0  0  0  0  0  0  0  0
   19.4220   44.9320    6.1550 C   0  0  0  0  0  0  0  0  0  0  0  0
   19.6900   46.0400    5.3470 C   0  0  0  0  0  0  0  0  0  0  0  0
   18.9010   46.3630    4.2890 C   0  0  0  0  0  0  0  0  0  0  0  0
   17.7950   45.6150    3.9540 C   0  0  0  0  0  0  0  0  0  0  0  0
   17.5250   44.5190    4.7440 C   0  0  0  0  0  0  0  0  0  0  0  0
   20.7310   46.9210    5.4960 O   0  0  0  0  0  0  0  0  0  0  0  0
   20.6540   47.6380    4.2290 C   0  0  0  0  0  0  0  0  0  0  0  0
   19.3600   47.4810    3.6560 O   0  0  0  0  0  0  0  0  0  0  0  0
   20.9280   40.7050    7.9490 C   0  0  0  0  0  0  0  0  0  0  0  0
   21.5940   40.6090    8.9930 O   0  0  0  0  0  0  0  0  0  0  0  0
   18.6670   43.7370   12.0180 H   0  0  0  0  0  0  0  0  0  0  0  0
   17.0320   45.0150   13.2710 H   0  0  0  0  0  0  0  0  0  0  0  0
   17.0920   45.0490   13.2540 H   0  0  0  0  0  0  0  0  0  0  0  0
   15.0400   45.9520   12.2710 H   0  0  0  0  0  0  0  0  0  0  0  0
   14.6070   45.6270    9.8500 H   0  0  0  0  0  0  0  0  0  0  0  0
   19.6480   42.0110   10.1310 H   0  0  0  0  0  0  0  0  0  0  0  0
   20.3830   43.2140    9.0840 H   0  0  0  0  0  0  0  0  0  0  0  0
   19.0010   40.7200    8.4020 H   0  0  0  0  0  0  0  0  0  0  0  0
   17.1830   42.2960    6.2850 H   0  0  0  0  0  0  0  0  0  0  0  0
   19.9560   39.3790    5.4190 H   0  0  0  0  0  0  0  0  0  0  0  0
   21.0980   40.6630    4.8340 H   0  0  0  0  0  0  0  0  0  0  0  0
   22.9860   39.4200    7.6580 H   0  0  0  0  0  0  0  0  0  0  0  0
   23.1540   39.8750    5.9790 H   0  0  0  0  0  0  0  0  0  0  0  0
   22.2940   38.4150    6.4070 H   0  0  0  0  0  0  0  0  0  0  0  0
   20.0330   44.7060    6.9560 H   0  0  0  0  0  0  0  0  0  0  0  0
   17.1960   45.8630    3.1510 H   0  0  0  0  0  0  0  0  0  0  0  0
   16.7030   43.9390    4.5130 H   0  0  0  0  0  0  0  0  0  0  0  0
   21.4250   48.1790    3.8080 H   0  0  0  0  0  0  0  0  0  0  0  0
   21.4730   47.0190    4.3320 H   0  0  0  0  0  0  0  0  0  0  0  0
  1 30  1  0  0  0  0
  2 31  1  0  0  0  0
  3 33  1  0  0  0  0
  4  3  2  0  0  0  0
  5  6  1  0  0  0  0
  5  4  1  0  0  0  0
  6  1  2  0  0  0  0
  7 10  1  0  0  0  0
  7  6  1  0  0  0  0
  8  9  1  0  0  0  0
  8  7  2  0  0  0  0
  9  5  2  0  0  0  0
 10 35  1  0  0  0  0
 11 37  1  1  0  0  0
 11 10  1  0  0  0  0
 12 11  1  0  0  0  0
 13 38  1  6  0  0  0
 13 12  1  0  0  0  0
 13  8  1  0  0  0  0
 14 28  1  0  0  0  0
 15 16  1  0  0  0  0
 15 14  1  0  0  0  0
 16 12  1  0  0  0  0
 17 14  1  0  0  0  0
 17 41  1  0  0  0  0
 18 16  2  0  0  0  0
 19 20  1  0  0  0  0
 19 13  1  0  0  0  0
 20 44  1  0  0  0  0
 21 25  1  0  0  0  0
 21 20  2  0  0  0  0
 22 21  1  0  0  0  0
 23 22  2  0  0  0  0
 23 24  1  0  0  0  0
 24 19  2  0  0  0  0
 26 48  1  0  0  0  0
 27 26  1  0  0  0  0
 27 22  1  0  0  0  0
 28 11  1  0  0  0  0
 28 29  2  0  0  0  0
 34  4  1  0  0  0  0
 36 10  1  0  0  0  0
 39 15  1  0  0  0  0
 40 15  1  0  0  0  0
 42 17  1  0  0  0  0
 43 17  1  0  0  0  0
 45 23  1  0  0  0  0
 46 24  1  0  0  0  0
 47 26  1  0  0  0  0
M  END
>  <Pose>
1

>  <Score>
-2.84

$$$$
