
 OpenBabel10152117013D

 48 49  0  0  1  0  0  0  0  0999 V2000
   52.8770   47.0960   17.6960 C   0  0  0  0  0  0  0  0  0  0  0  0
   52.5660   46.9150   16.3580 C   0  0  0  0  0  0  0  0  0  0  0  0
   52.6100   47.9360   15.3710 C   0  0  0  0  0  0  0  0  0  0  0  0
   52.9920   49.2470   15.7370 C   0  0  0  0  0  0  0  0  0  0  0  0
   53.3050   49.4340   17.0730 C   0  0  0  0  0  0  0  0  0  0  0  0
   53.2540   48.4080   18.0290 C   0  0  0  0  0  0  0  0  0  0  0  0
   53.6500   49.0090   19.3110 C   0  0  0  0  0  0  0  0  0  0  0  0
   53.8990   50.3120   19.0250 C   0  0  0  0  0  0  0  0  0  0  0  0
   53.7040   50.5590   17.7430 N   0  0  0  0  0  0  0  0  0  0  0  0
   53.7720   48.3840   20.6720 C   0  0  0  0  0  0  0  0  0  0  0  0
   54.7550   49.1730   21.5470 C   0  0  1  0  0  0  0  0  0  0  0  0
   54.7620   50.6240   21.3270 N   0  0  0  0  0  0  0  0  0  0  0  0
   54.3270   51.2450   20.0880 C   0  0  2  0  0  0  0  0  0  0  0  0
   55.3550   49.5550   23.8790 N   0  0  0  0  0  0  0  0  0  0  0  0
   55.6740   50.9450   23.5520 C   0  0  0  0  0  0  0  0  0  0  0  0
   55.2110   51.4790   22.2710 C   0  0  0  0  0  0  0  0  0  0  0  0
   55.5130   49.0760   25.2400 C   0  0  0  0  0  0  0  0  0  0  0  0
   55.2540   52.6750   22.1300 O   0  0  0  0  0  0  0  0  0  0  0  0
   53.1070   52.2170   20.2540 C   0  0  0  0  0  0  0  0  0  0  0  0
   53.1600   53.5290   19.8140 C   0  0  0  0  0  0  0  0  0  0  0  0
   52.0400   54.3440   19.9910 C   0  0  0  0  0  0  0  0  0  0  0  0
   50.9070   53.8840   20.5850 C   0  0  0  0  0  0  0  0  0  0  0  0
   50.8010   52.5910   21.0420 C   0  0  0  0  0  0  0  0  0  0  0  0
   51.9010   51.7800   20.8680 C   0  0  0  0  0  0  0  0  0  0  0  0
   51.9240   55.6590   19.6170 O   0  0  0  0  0  0  0  0  0  0  0  0
   50.4880   55.8540   19.7780 C   0  0  0  0  0  0  0  0  0  0  0  0
   49.9550   54.8600   20.6460 O   0  0  0  0  0  0  0  0  0  0  0  0
   54.9300   48.7020   22.9560 C   0  0  0  0  0  0  0  0  0  0  0  0
   54.6490   47.5110   23.1660 O   0  0  0  0  0  0  0  0  0  0  0  0
   52.8360   46.3320   18.3890 H   0  0  0  0  0  0  0  0  0  0  0  0
   52.2810   45.9700   16.0570 H   0  0  0  0  0  0  0  0  0  0  0  0
   52.2270   45.9740   16.1020 H   0  0  0  0  0  0  0  0  0  0  0  0
   52.3640   47.7220   14.3920 H   0  0  0  0  0  0  0  0  0  0  0  0
   53.0340   50.0170   15.0520 H   0  0  0  0  0  0  0  0  0  0  0  0
   54.1240   47.3790   20.5670 H   0  0  0  0  0  0  0  0  0  0  0  0
   52.8100   48.3930   21.1420 H   0  0  0  0  0  0  0  0  0  0  0  0
   55.7010   48.8820   21.1410 H   0  0  0  0  0  0  0  0  0  0  0  0
   55.2240   51.7570   19.8080 H   0  0  0  0  0  0  0  0  0  0  0  0
   56.7400   51.0370   23.5670 H   0  0  0  0  0  0  0  0  0  0  0  0
   55.1440   51.5170   24.2840 H   0  0  0  0  0  0  0  0  0  0  0  0
   55.2350   48.0440   25.2890 H   0  0  0  0  0  0  0  0  0  0  0  0
   54.8870   49.6460   25.8940 H   0  0  0  0  0  0  0  0  0  0  0  0
   56.5350   49.1840   25.5400 H   0  0  0  0  0  0  0  0  0  0  0  0
   54.0120   53.8980   19.3630 H   0  0  0  0  0  0  0  0  0  0  0  0
   49.9390   52.2450   21.4940 H   0  0  0  0  0  0  0  0  0  0  0  0
   51.8460   50.8040   21.2010 H   0  0  0  0  0  0  0  0  0  0  0  0
   49.9390   56.6030   19.3290 H   0  0  0  0  0  0  0  0  0  0  0  0
   50.8220   55.8510   18.8020 H   0  0  0  0  0  0  0  0  0  0  0  0
  1  6  2  0  0  0  0
  1 30  1  0  0  0  0
  3  4  2  0  0  0  0
  4  5  1  0  0  0  0
  5  9  2  0  0  0  0
  5  6  1  0  0  0  0
  6  7  1  0  0  0  0
  7 10  1  0  0  0  0
  8  7  2  0  0  0  0
  8 13  1  0  0  0  0
  9  8  1  0  0  0  0
 10 36  1  0  0  0  0
 10 11  1  0  0  0  0
 11 37  1  6  0  0  0
 11 28  1  0  0  0  0
 12 11  1  0  0  0  0
 12 16  1  0  0  0  0
 13 38  1  6  0  0  0
 13 19  1  0  0  0  0
 13 12  1  0  0  0  0
 14 17  1  0  0  0  0
 15 39  1  0  0  0  0
 15 14  1  0  0  0  0
 15 40  1  0  0  0  0
 16 15  1  0  0  0  0
 17 41  1  0  0  0  0
 17 43  1  0  0  0  0
 17 42  1  0  0  0  0
 18 16  2  0  0  0  0
 19 24  1  0  0  0  0
 20 21  1  0  0  0  0
 20 19  2  0  0  0  0
 21 22  2  0  0  0  0
 22 27  1  0  0  0  0
 22 23  1  0  0  0  0
 23 45  1  0  0  0  0
 24 23  2  0  0  0  0
 24 46  1  0  0  0  0
 25 21  1  0  0  0  0
 26 27  1  0  0  0  0
 28 29  2  0  0  0  0
 28 14  1  0  0  0  0
 31  2  1  0  0  0  0
 33  3  1  0  0  0  0
 34  4  1  0  0  0  0
 35 10  1  0  0  0  0
 44 20  1  0  0  0  0
 47 26  1  0  0  0  0
 48 26  1  0  0  0  0
M  END
>  <Pose>
2

>  <Score>
-4.56

$$$$

 OpenBabel10152117013D

 48 49  0  0  1  0  0  0  0  0999 V2000
   52.5950   47.0580   17.6380 C   0  0  0  0  0  0  0  0  0  0  0  0
   52.2120   46.8630   16.3210 C   0  0  0  0  0  0  0  0  0  0  0  0
   52.3690   47.8190   15.2820 C   0  0  0  0  0  0  0  0  0  0  0  0
   52.9520   49.0740   15.5690 C   0  0  0  0  0  0  0  0  0  0  0  0
   53.3380   49.2750   16.8830 C   0  0  0  0  0  0  0  0  0  0  0  0
   53.1720   48.3140   17.8920 C   0  0  0  0  0  0  0  0  0  0  0  0
   53.6990   48.9090   19.1300 C   0  0  0  0  0  0  0  0  0  0  0  0
   54.1260   50.1450   18.7690 C   0  0  0  0  0  0  0  0  0  0  0  0
   53.9220   50.3590   17.4820 N   0  0  0  0  0  0  0  0  0  0  0  0
   53.7770   48.3370   20.5170 C   0  0  0  0  0  0  0  0  0  0  0  0
   54.8960   49.0120   21.3210 C   0  0  1  0  0  0  0  0  0  0  0  0
   55.1080   50.4340   21.0260 N   0  0  0  0  0  0  0  0  0  0  0  0
   54.7240   51.0530   19.7690 C   0  0  2  0  0  0  0  0  0  0  0  0
   55.6310   49.4100   23.6110 N   0  0  0  0  0  0  0  0  0  0  0  0
   56.1380   50.7200   23.2030 C   0  0  0  0  0  0  0  0  0  0  0  0
   55.7120   51.2560   21.9100 C   0  0  0  0  0  0  0  0  0  0  0  0
   55.7660   48.9760   24.9900 C   0  0  0  0  0  0  0  0  0  0  0  0
   55.9240   52.4250   21.7070 O   0  0  0  0  0  0  0  0  0  0  0  0
   53.6670   52.2020   19.9210 C   0  0  0  0  0  0  0  0  0  0  0  0
   52.4200   51.9720   20.4800 C   0  0  0  0  0  0  0  0  0  0  0  0
   51.5240   53.0370   20.5870 C   0  0  0  0  0  0  0  0  0  0  0  0
   51.8410   54.2870   20.1560 C   0  0  0  0  0  0  0  0  0  0  0  0
   53.0630   54.5700   19.5910 C   0  0  0  0  0  0  0  0  0  0  0  0
   53.9550   53.5250   19.4840 C   0  0  0  0  0  0  0  0  0  0  0  0
   50.2570   52.9840   21.1120 O   0  0  0  0  0  0  0  0  0  0  0  0
   49.9570   54.4060   21.2250 C   0  0  0  0  0  0  0  0  0  0  0  0
   50.8090   55.1550   20.3640 O   0  0  0  0  0  0  0  0  0  0  0  0
   55.0520   48.5870   22.7460 C   0  0  0  0  0  0  0  0  0  0  0  0
   54.6070   47.4620   23.0260 O   0  0  0  0  0  0  0  0  0  0  0  0
   52.4680   46.3420   18.3710 H   0  0  0  0  0  0  0  0  0  0  0  0
   51.7810   45.9570   16.0780 H   0  0  0  0  0  0  0  0  0  0  0  0
   51.7300   45.9720   16.1240 H   0  0  0  0  0  0  0  0  0  0  0  0
   52.0600   47.5980   14.3230 H   0  0  0  0  0  0  0  0  0  0  0  0
   53.0820   49.7960   14.8430 H   0  0  0  0  0  0  0  0  0  0  0  0
   53.9740   47.2870   20.4540 H   0  0  0  0  0  0  0  0  0  0  0  0
   52.8450   48.5110   21.0130 H   0  0  0  0  0  0  0  0  0  0  0  0
   55.7740   48.5660   20.9030 H   0  0  0  0  0  0  0  0  0  0  0  0
   55.6750   51.4140   19.4370 H   0  0  0  0  0  0  0  0  0  0  0  0
   57.2060   50.6540   23.1830 H   0  0  0  0  0  0  0  0  0  0  0  0
   55.7240   51.3980   23.9200 H   0  0  0  0  0  0  0  0  0  0  0  0
   55.3420   48.0010   25.1000 H   0  0  0  0  0  0  0  0  0  0  0  0
   55.2550   49.6630   25.6320 H   0  0  0  0  0  0  0  0  0  0  0  0
   56.8030   48.9460   25.2540 H   0  0  0  0  0  0  0  0  0  0  0  0
   52.1590   51.0300   20.8120 H   0  0  0  0  0  0  0  0  0  0  0  0
   53.3010   55.5200   19.2630 H   0  0  0  0  0  0  0  0  0  0  0  0
   54.8790   53.7120   19.0660 H   0  0  0  0  0  0  0  0  0  0  0  0
   49.2330   54.8120   21.8390 H   0  0  0  0  0  0  0  0  0  0  0  0
   50.0950   53.9160   22.1220 H   0  0  0  0  0  0  0  0  0  0  0  0
  1  6  2  0  0  0  0
  1 30  1  0  0  0  0
  3  4  2  0  0  0  0
  4  5  1  0  0  0  0
  5  9  2  0  0  0  0
  5  6  1  0  0  0  0
  6  7  1  0  0  0  0
  7 10  1  0  0  0  0
  8  7  2  0  0  0  0
  8 13  1  0  0  0  0
  9  8  1  0  0  0  0
 10 36  1  0  0  0  0
 10 11  1  0  0  0  0
 11 37  1  6  0  0  0
 11 28  1  0  0  0  0
 12 11  1  0  0  0  0
 12 16  1  0  0  0  0
 13 38  1  6  0  0  0
 13 19  1  0  0  0  0
 13 12  1  0  0  0  0
 14 17  1  0  0  0  0
 15 14  1  0  0  0  0
 15 40  1  0  0  0  0
 16 15  1  0  0  0  0
 17 41  1  0  0  0  0
 17 43  1  0  0  0  0
 17 42  1  0  0  0  0
 18 16  2  0  0  0  0
 19 20  1  0  0  0  0
 20 21  2  0  0  0  0
 20 44  1  0  0  0  0
 21 25  1  0  0  0  0
 22 27  1  0  0  0  0
 22 21  1  0  0  0  0
 23 22  2  0  0  0  0
 24 23  1  0  0  0  0
 24 19  2  0  0  0  0
 26 47  1  0  0  0  0
 26 48  1  0  0  0  0
 27 26  1  0  0  0  0
 28 29  2  0  0  0  0
 28 14  1  0  0  0  0
 32  2  1  0  0  0  0
 33  3  1  0  0  0  0
 34  4  1  0  0  0  0
 35 10  1  0  0  0  0
 39 15  1  0  0  0  0
 45 23  1  0  0  0  0
 46 24  1  0  0  0  0
M  END
>  <Pose>
1

>  <Score>
-4.47

$$$$

 OpenBabel10152117013D

 48 49  0  0  1  0  0  0  0  0999 V2000
   53.2940   51.4270   12.6620 C   0  0  0  0  0  0  0  0  0  0  0  0
   53.7430   52.5080   11.9220 C   0  0  0  0  0  0  0  0  0  0  0  0
   54.7170   53.4440   12.3640 C   0  0  0  0  0  0  0  0  0  0  0  0
   55.2930   53.3010   13.6460 C   0  0  0  0  0  0  0  0  0  0  0  0
   54.8490   52.2210   14.3910 C   0  0  0  0  0  0  0  0  0  0  0  0
   53.8870   51.3100   13.9320 C   0  0  0  0  0  0  0  0  0  0  0  0
   53.6910   50.3270   15.0080 C   0  0  0  0  0  0  0  0  0  0  0  0
   54.5320   50.7200   15.9970 C   0  0  0  0  0  0  0  0  0  0  0  0
   55.1980   51.8050   15.6470 N   0  0  0  0  0  0  0  0  0  0  0  0
   52.7820   49.1320   15.0690 C   0  0  0  0  0  0  0  0  0  0  0  0
   53.3190   48.0910   16.0600 C   0  0  1  0  0  0  0  0  0  0  0  0
   54.0000   48.6410   17.2370 N   0  0  0  0  0  0  0  0  0  0  0  0
   54.6090   49.9600   17.2620 C   0  0  2  0  0  0  0  0  0  0  0  0
   52.6040   46.1850   17.4030 N   0  0  0  0  0  0  0  0  0  0  0  0
   53.5530   46.5850   18.4430 C   0  0  0  0  0  0  0  0  0  0  0  0
   54.1310   47.9270   18.3760 C   0  0  0  0  0  0  0  0  0  0  0  0
   51.7780   45.0070   17.5890 C   0  0  0  0  0  0  0  0  0  0  0  0
   54.6970   48.3280   19.3600 O   0  0  0  0  0  0  0  0  0  0  0  0
   53.9890   50.9290   18.3270 C   0  0  0  0  0  0  0  0  0  0  0  0
   52.6290   50.9460   18.5880 C   0  0  0  0  0  0  0  0  0  0  0  0
   52.1390   51.8330   19.5490 C   0  0  0  0  0  0  0  0  0  0  0  0
   52.9580   52.6770   20.2290 C   0  0  0  0  0  0  0  0  0  0  0  0
   54.3170   52.7040   20.0090 C   0  0  0  0  0  0  0  0  0  0  0  0
   54.8080   51.8300   19.0640 C   0  0  0  0  0  0  0  0  0  0  0  0
   50.8270   51.9790   19.9270 O   0  0  0  0  0  0  0  0  0  0  0  0
   50.9870   52.7930   21.1260 C   0  0  0  0  0  0  0  0  0  0  0  0
   52.2520   53.4440   21.1090 O   0  0  0  0  0  0  0  0  0  0  0  0
   52.4810   46.8700   16.2730 C   0  0  0  0  0  0  0  0  0  0  0  0
   51.7030   46.5810   15.3500 O   0  0  0  0  0  0  0  0  0  0  0  0
   52.5860   50.7640   12.3120 H   0  0  0  0  0  0  0  0  0  0  0  0
   53.3410   52.6440   10.9810 H   0  0  0  0  0  0  0  0  0  0  0  0
   53.2780   52.6510   11.0120 H   0  0  0  0  0  0  0  0  0  0  0  0
   55.0010   54.2250   11.7520 H   0  0  0  0  0  0  0  0  0  0  0  0
   56.0020   53.9600   14.0060 H   0  0  0  0  0  0  0  0  0  0  0  0
   52.7170   48.6900   14.0960 H   0  0  0  0  0  0  0  0  0  0  0  0
   51.8150   49.4520   15.3970 H   0  0  0  0  0  0  0  0  0  0  0  0
   54.1310   47.6580   15.5150 H   0  0  0  0  0  0  0  0  0  0  0  0
   55.6220   49.6970   17.4880 H   0  0  0  0  0  0  0  0  0  0  0  0
   54.3640   45.8880   18.4160 H   0  0  0  0  0  0  0  0  0  0  0  0
   52.9710   46.5930   19.3420 H   0  0  0  0  0  0  0  0  0  0  0  0
   51.1510   44.8720   16.7310 H   0  0  0  0  0  0  0  0  0  0  0  0
   51.1690   45.1320   18.4590 H   0  0  0  0  0  0  0  0  0  0  0  0
   52.4040   44.1480   17.7110 H   0  0  0  0  0  0  0  0  0  0  0  0
   51.9890   50.3150   18.0810 H   0  0  0  0  0  0  0  0  0  0  0  0
   54.9360   53.3470   20.5250 H   0  0  0  0  0  0  0  0  0  0  0  0
   55.8240   51.8280   18.8810 H   0  0  0  0  0  0  0  0  0  0  0  0
   50.2850   52.8840   21.8770 H   0  0  0  0  0  0  0  0  0  0  0  0
   50.6810   51.8220   21.2940 H   0  0  0  0  0  0  0  0  0  0  0  0
  1  6  1  0  0  0  0
  3  4  2  0  0  0  0
  4 34  1  0  0  0  0
  4  5  1  0  0  0  0
  5  9  1  0  0  0  0
  6  5  2  0  0  0  0
  6  7  1  0  0  0  0
  7 10  1  0  0  0  0
  7  8  2  0  0  0  0
  8 13  1  0  0  0  0
  9  8  1  0  0  0  0
 10 36  1  0  0  0  0
 10 11  1  0  0  0  0
 11 37  1  6  0  0  0
 11 28  1  0  0  0  0
 11 12  1  0  0  0  0
 12 13  1  0  0  0  0
 12 16  1  0  0  0  0
 13 38  1  1  0  0  0
 13 19  1  0  0  0  0
 14 17  1  0  0  0  0
 14 15  1  0  0  0  0
 15 40  1  0  0  0  0
 16 15  1  0  0  0  0
 16 18  2  0  0  0  0
 17 43  1  0  0  0  0
 17 42  1  0  0  0  0
 19 20  2  0  0  0  0
 19 24  1  0  0  0  0
 20 21  1  0  0  0  0
 21 25  1  0  0  0  0
 21 22  2  0  0  0  0
 22 27  1  0  0  0  0
 23 22  1  0  0  0  0
 23 45  1  0  0  0  0
 24 23  2  0  0  0  0
 26 48  1  0  0  0  0
 26 47  1  0  0  0  0
 27 26  1  0  0  0  0
 28 14  1  0  0  0  0
 29 28  2  0  0  0  0
 30  1  1  0  0  0  0
 32  2  1  0  0  0  0
 33  3  1  0  0  0  0
 35 10  1  0  0  0  0
 39 15  1  0  0  0  0
 41 17  1  0  0  0  0
 44 20  1  0  0  0  0
 46 24  1  0  0  0  0
M  END
>  <Pose>
1

>  <Score>
-4.41

$$$$

 OpenBabel10152117013D

 48 49  0  0  1  0  0  0  0  0999 V2000
   52.7910   54.3710   19.6020 C   0  0  0  0  0  0  0  0  0  0  0  0
   51.5490   54.8740   19.9560 C   0  0  0  0  0  0  0  0  0  0  0  0
   50.4540   54.0880   20.4030 C   0  0  0  0  0  0  0  0  0  0  0  0
   50.5970   52.6850   20.5080 C   0  0  0  0  0  0  0  0  0  0  0  0
   51.8350   52.1760   20.1560 C   0  0  0  0  0  0  0  0  0  0  0  0
   52.9020   52.9740   19.7180 C   0  0  0  0  0  0  0  0  0  0  0  0
   54.0240   52.0640   19.4450 C   0  0  0  0  0  0  0  0  0  0  0  0
   53.5490   50.8270   19.7360 C   0  0  0  0  0  0  0  0  0  0  0  0
   52.2950   50.8870   20.1450 N   0  0  0  0  0  0  0  0  0  0  0  0
   55.4120   52.3640   18.9520 C   0  0  0  0  0  0  0  0  0  0  0  0
   56.3900   51.2620   19.3780 C   0  0  1  0  0  0  0  0  0  0  0  0
   55.8280   49.9070   19.4160 N   0  0  0  0  0  0  0  0  0  0  0  0
   54.4100   49.6370   19.5760 C   0  0  2  0  0  0  0  0  0  0  0  0
   58.5620   50.3110   18.8100 N   0  0  0  0  0  0  0  0  0  0  0  0
   58.0600   48.9870   19.1770 C   0  0  0  0  0  0  0  0  0  0  0  0
   56.6160   48.8130   19.3360 C   0  0  0  0  0  0  0  0  0  0  0  0
   59.9280   50.4650   18.3420 C   0  0  0  0  0  0  0  0  0  0  0  0
   56.2030   47.6820   19.3810 O   0  0  0  0  0  0  0  0  0  0  0  0
   53.7680   48.8620   18.3730 C   0  0  0  0  0  0  0  0  0  0  0  0
   53.6860   49.4240   17.1100 C   0  0  0  0  0  0  0  0  0  0  0  0
   53.1030   48.6810   16.0800 C   0  0  0  0  0  0  0  0  0  0  0  0
   52.6150   47.4290   16.2860 C   0  0  0  0  0  0  0  0  0  0  0  0
   52.6700   46.8240   17.5210 C   0  0  0  0  0  0  0  0  0  0  0  0
   53.2460   47.5490   18.5420 C   0  0  0  0  0  0  0  0  0  0  0  0
   52.9420   49.0840   14.7780 O   0  0  0  0  0  0  0  0  0  0  0  0
   52.5750   47.8190   14.1530 C   0  0  0  0  0  0  0  0  0  0  0  0
   52.0960   46.9090   15.1370 O   0  0  0  0  0  0  0  0  0  0  0  0
   57.8020   51.3940   18.9030 C   0  0  0  0  0  0  0  0  0  0  0  0
   58.1690   52.5450   18.6150 O   0  0  0  0  0  0  0  0  0  0  0  0
   53.5670   54.9700   19.2820 H   0  0  0  0  0  0  0  0  0  0  0  0
   51.4100   55.8950   19.8890 H   0  0  0  0  0  0  0  0  0  0  0  0
   51.4240   55.8900   19.8200 H   0  0  0  0  0  0  0  0  0  0  0  0
   49.5590   54.5380   20.6500 H   0  0  0  0  0  0  0  0  0  0  0  0
   49.8250   52.0780   20.8260 H   0  0  0  0  0  0  0  0  0  0  0  0
   55.7350   53.2980   19.3610 H   0  0  0  0  0  0  0  0  0  0  0  0
   55.3930   52.4130   17.8830 H   0  0  0  0  0  0  0  0  0  0  0  0
   56.5300   51.4740   20.4180 H   0  0  0  0  0  0  0  0  0  0  0  0
   54.4270   49.0550   20.4750 H   0  0  0  0  0  0  0  0  0  0  0  0
   58.5150   48.7220   20.1090 H   0  0  0  0  0  0  0  0  0  0  0  0
   58.3100   48.3680   18.3410 H   0  0  0  0  0  0  0  0  0  0  0  0
   60.1150   51.4950   18.1230 H   0  0  0  0  0  0  0  0  0  0  0  0
   60.0700   49.8800   17.4580 H   0  0  0  0  0  0  0  0  0  0  0  0
   60.6040   50.1330   19.1020 H   0  0  0  0  0  0  0  0  0  0  0  0
   54.0480   50.3730   16.9320 H   0  0  0  0  0  0  0  0  0  0  0  0
   52.2970   45.8740   17.6760 H   0  0  0  0  0  0  0  0  0  0  0  0
   53.3010   47.1170   19.4780 H   0  0  0  0  0  0  0  0  0  0  0  0
   52.6520   47.6130   13.1450 H   0  0  0  0  0  0  0  0  0  0  0  0
   53.5090   48.1770   13.9000 H   0  0  0  0  0  0  0  0  0  0  0  0
  1  6  1  0  0  0  0
  3  4  2  0  0  0  0
  3 33  1  0  0  0  0
  4 34  1  0  0  0  0
  5  4  1  0  0  0  0
  6  5  2  0  0  0  0
  7  6  1  0  0  0  0
  7  8  2  0  0  0  0
  8  9  1  0  0  0  0
  9  5  1  0  0  0  0
 10 35  1  0  0  0  0
 10 11  1  0  0  0  0
 10  7  1  0  0  0  0
 11 12  1  0  0  0  0
 11 37  1  1  0  0  0
 12 13  1  0  0  0  0
 13  8  1  0  0  0  0
 13 38  1  1  0  0  0
 14 28  1  0  0  0  0
 14 15  1  0  0  0  0
 15 16  1  0  0  0  0
 15 39  1  0  0  0  0
 16 18  2  0  0  0  0
 16 12  1  0  0  0  0
 17 14  1  0  0  0  0
 17 43  1  0  0  0  0
 19 24  1  0  0  0  0
 19 13  1  0  0  0  0
 20 19  2  0  0  0  0
 21 22  2  0  0  0  0
 21 20  1  0  0  0  0
 22 23  1  0  0  0  0
 23 45  1  0  0  0  0
 23 24  2  0  0  0  0
 24 46  1  0  0  0  0
 25 21  1  0  0  0  0
 26 27  1  0  0  0  0
 27 22  1  0  0  0  0
 28 11  1  0  0  0  0
 29 28  2  0  0  0  0
 30  1  1  0  0  0  0
 31  2  1  0  0  0  0
 36 10  1  0  0  0  0
 40 15  1  0  0  0  0
 41 17  1  0  0  0  0
 42 17  1  0  0  0  0
 44 20  1  0  0  0  0
 47 26  1  0  0  0  0
 48 26  1  0  0  0  0
M  END
>  <Pose>
1

>  <Score>
-4.06

$$$$
