
 OpenBabel10152117013D

 48 49  0  0  1  0  0  0  0  0999 V2000
   52.3190   37.7650   -2.8990 C   0  0  0  0  0  0  0  0  0  0  0  0
   52.7190   36.4400   -2.9650 C   0  0  0  0  0  0  0  0  0  0  0  0
   52.1270   35.3780   -2.2310 C   0  0  0  0  0  0  0  0  0  0  0  0
   51.0510   35.6480   -1.3550 C   0  0  0  0  0  0  0  0  0  0  0  0
   50.6460   36.9700   -1.2850 C   0  0  0  0  0  0  0  0  0  0  0  0
   51.2470   38.0020   -2.0210 C   0  0  0  0  0  0  0  0  0  0  0  0
   50.5380   39.2400   -1.6650 C   0  0  0  0  0  0  0  0  0  0  0  0
   49.5950   38.8580   -0.7680 C   0  0  0  0  0  0  0  0  0  0  0  0
   49.6530   37.5570   -0.5480 N   0  0  0  0  0  0  0  0  0  0  0  0
   50.7560   40.6470   -2.1450 C   0  0  0  0  0  0  0  0  0  0  0  0
   49.4710   41.4740   -2.0030 C   0  0  1  0  0  0  0  0  0  0  0  0
   48.6390   41.1430   -0.8410 N   0  0  0  0  0  0  0  0  0  0  0  0
   48.6770   39.8520   -0.1760 C   0  0  2  0  0  0  0  0  0  0  0  0
   48.6890   43.7800   -1.8660 N   0  0  0  0  0  0  0  0  0  0  0  0
   47.6400   43.3510   -0.9410 C   0  0  0  0  0  0  0  0  0  0  0  0
   47.7510   42.0240   -0.3330 C   0  0  0  0  0  0  0  0  0  0  0  0
   48.7930   45.1760   -2.2480 C   0  0  0  0  0  0  0  0  0  0  0  0
   47.0340   41.7920    0.6070 O   0  0  0  0  0  0  0  0  0  0  0  0
   49.1110   39.9210    1.3300 C   0  0  0  0  0  0  0  0  0  0  0  0
   48.3010   39.4340    2.3420 C   0  0  0  0  0  0  0  0  0  0  0  0
   48.7450   39.5260    3.6630 C   0  0  0  0  0  0  0  0  0  0  0  0
   49.9450   40.0800    3.9780 C   0  0  0  0  0  0  0  0  0  0  0  0
   50.7880   40.5820    3.0130 C   0  0  0  0  0  0  0  0  0  0  0  0
   50.3580   40.4930    1.7070 C   0  0  0  0  0  0  0  0  0  0  0  0
   48.0720   39.0950    4.7790 O   0  0  0  0  0  0  0  0  0  0  0  0
   49.1320   39.1800    5.7760 C   0  0  0  0  0  0  0  0  0  0  0  0
   50.1580   40.0590    5.3260 O   0  0  0  0  0  0  0  0  0  0  0  0
   49.5550   42.9180   -2.3840 C   0  0  0  0  0  0  0  0  0  0  0  0
   50.4620   43.2160   -3.1780 O   0  0  0  0  0  0  0  0  0  0  0  0
   52.7700   38.5140   -3.4470 H   0  0  0  0  0  0  0  0  0  0  0  0
   53.5040   36.2080   -3.5940 H   0  0  0  0  0  0  0  0  0  0  0  0
   53.5440   36.2520   -3.5550 H   0  0  0  0  0  0  0  0  0  0  0  0
   52.4810   34.4140   -2.3360 H   0  0  0  0  0  0  0  0  0  0  0  0
   50.5940   34.9050   -0.8020 H   0  0  0  0  0  0  0  0  0  0  0  0
   51.0480   40.6260   -3.1740 H   0  0  0  0  0  0  0  0  0  0  0  0
   51.5230   41.0980   -1.5500 H   0  0  0  0  0  0  0  0  0  0  0  0
   48.8770   41.1090   -2.8140 H   0  0  0  0  0  0  0  0  0  0  0  0
   47.6580   39.5480   -0.2940 H   0  0  0  0  0  0  0  0  0  0  0  0
   46.7140   43.3770   -1.4770 H   0  0  0  0  0  0  0  0  0  0  0  0
   47.7230   44.0270   -0.1160 H   0  0  0  0  0  0  0  0  0  0  0  0
   49.6120   45.3000   -2.9250 H   0  0  0  0  0  0  0  0  0  0  0  0
   48.9580   45.7730   -1.3750 H   0  0  0  0  0  0  0  0  0  0  0  0
   47.8860   45.4840   -2.7240 H   0  0  0  0  0  0  0  0  0  0  0  0
   47.3850   39.0110    2.1240 H   0  0  0  0  0  0  0  0  0  0  0  0
   51.6980   41.0040    3.2550 H   0  0  0  0  0  0  0  0  0  0  0  0
   50.9730   40.8590    0.9630 H   0  0  0  0  0  0  0  0  0  0  0  0
   49.1390   38.6760    6.6770 H   0  0  0  0  0  0  0  0  0  0  0  0
   48.8460   38.2210    5.5230 H   0  0  0  0  0  0  0  0  0  0  0  0
  1  6  1  0  0  0  0
  3  4  2  0  0  0  0
  4  5  1  0  0  0  0
  4 34  1  0  0  0  0
  5  9  1  0  0  0  0
  6  7  1  0  0  0  0
  6  5  2  0  0  0  0
  7  8  2  0  0  0  0
  8  9  1  0  0  0  0
  8 13  1  0  0  0  0
 10 11  1  0  0  0  0
 10  7  1  0  0  0  0
 10 36  1  0  0  0  0
 11 37  1  6  0  0  0
 11 12  1  0  0  0  0
 12 16  1  0  0  0  0
 12 13  1  0  0  0  0
 13 38  1  6  0  0  0
 13 19  1  0  0  0  0
 14 15  1  0  0  0  0
 15 16  1  0  0  0  0
 15 40  1  0  0  0  0
 16 18  2  0  0  0  0
 17 14  1  0  0  0  0
 17 42  1  0  0  0  0
 19 24  2  0  0  0  0
 19 20  1  0  0  0  0
 20 21  2  0  0  0  0
 21 22  1  0  0  0  0
 21 25  1  0  0  0  0
 22 27  1  0  0  0  0
 23 45  1  0  0  0  0
 23 22  2  0  0  0  0
 24 23  1  0  0  0  0
 26 47  1  0  0  0  0
 27 26  1  0  0  0  0
 28 11  1  0  0  0  0
 28 14  1  0  0  0  0
 29 28  2  0  0  0  0
 30  1  1  0  0  0  0
 32  2  1  0  0  0  0
 33  3  1  0  0  0  0
 35 10  1  0  0  0  0
 39 15  1  0  0  0  0
 41 17  1  0  0  0  0
 43 17  1  0  0  0  0
 44 20  1  0  0  0  0
 46 24  1  0  0  0  0
 48 26  1  0  0  0  0
M  END
>  <Pose>
1

>  <Score>
-3.25

$$$$

 OpenBabel10152117013D

 48 49  0  0  1  0  0  0  0  0999 V2000
   49.7960   38.8120    3.7640 C   0  0  0  0  0  0  0  0  0  0  0  0
   48.8840   39.4480    4.5900 C   0  0  0  0  0  0  0  0  0  0  0  0
   47.6350   39.9740    4.1640 C   0  0  0  0  0  0  0  0  0  0  0  0
   47.2570   39.8650    2.8070 C   0  0  0  0  0  0  0  0  0  0  0  0
   48.1640   39.2300    1.9760 C   0  0  0  0  0  0  0  0  0  0  0  0
   49.3920   38.7180    2.4200 C   0  0  0  0  0  0  0  0  0  0  0  0
   50.0540   38.1330    1.2460 C   0  0  0  0  0  0  0  0  0  0  0  0
   49.1910   38.3380    0.2190 C   0  0  0  0  0  0  0  0  0  0  0  0
   48.1050   38.9650    0.6340 N   0  0  0  0  0  0  0  0  0  0  0  0
   51.3870   37.4490    1.1310 C   0  0  0  0  0  0  0  0  0  0  0  0
   51.4080   36.4990   -0.0730 C   0  0  1  0  0  0  0  0  0  0  0  0
   50.6340   36.9450   -1.2360 N   0  0  0  0  0  0  0  0  0  0  0  0
   49.5240   37.8780   -1.1450 C   0  0  2  0  0  0  0  0  0  0  0  0
   52.9490   35.3550   -1.5780 N   0  0  0  0  0  0  0  0  0  0  0  0
   51.9890   35.5320   -2.6680 C   0  0  0  0  0  0  0  0  0  0  0  0
   50.8910   36.4800   -2.4780 C   0  0  0  0  0  0  0  0  0  0  0  0
   54.2090   34.6770   -1.8230 C   0  0  0  0  0  0  0  0  0  0  0  0
   50.2720   36.8020   -3.4590 O   0  0  0  0  0  0  0  0  0  0  0  0
   49.7390   39.2060   -1.9520 C   0  0  0  0  0  0  0  0  0  0  0  0
   50.9130   39.9350   -1.8500 C   0  0  0  0  0  0  0  0  0  0  0  0
   51.0420   41.1090   -2.5950 C   0  0  0  0  0  0  0  0  0  0  0  0
   50.0490   41.5530   -3.4110 C   0  0  0  0  0  0  0  0  0  0  0  0
   48.8620   40.8700   -3.5470 C   0  0  0  0  0  0  0  0  0  0  0  0
   48.7280   39.7090   -2.8180 C   0  0  0  0  0  0  0  0  0  0  0  0
   52.1300   41.9450   -2.6120 O   0  0  0  0  0  0  0  0  0  0  0  0
   51.8010   42.7840   -3.7590 C   0  0  0  0  0  0  0  0  0  0  0  0
   50.4050   42.7160   -4.0290 O   0  0  0  0  0  0  0  0  0  0  0  0
   52.6980   35.7920   -0.3510 C   0  0  0  0  0  0  0  0  0  0  0  0
   53.4650   35.6690    0.6170 O   0  0  0  0  0  0  0  0  0  0  0  0
   50.6960   38.4400    4.1050 H   0  0  0  0  0  0  0  0  0  0  0  0
   49.1300   39.5460    5.5880 H   0  0  0  0  0  0  0  0  0  0  0  0
   49.1860   39.5840    5.5670 H   0  0  0  0  0  0  0  0  0  0  0  0
   47.0070   40.4340    4.8420 H   0  0  0  0  0  0  0  0  0  0  0  0
   46.3590   40.2360    2.4560 H   0  0  0  0  0  0  0  0  0  0  0  0
   51.5730   36.8890    2.0240 H   0  0  0  0  0  0  0  0  0  0  0  0
   52.1440   38.1930    0.9950 H   0  0  0  0  0  0  0  0  0  0  0  0
   50.8250   35.6740    0.2800 H   0  0  0  0  0  0  0  0  0  0  0  0
   48.7360   37.2770   -1.5480 H   0  0  0  0  0  0  0  0  0  0  0  0
   51.5510   34.5750   -2.8620 H   0  0  0  0  0  0  0  0  0  0  0  0
   52.5670   35.9520   -3.4640 H   0  0  0  0  0  0  0  0  0  0  0  0
   54.7770   34.6420   -0.9180 H   0  0  0  0  0  0  0  0  0  0  0  0
   54.7600   35.2080   -2.5710 H   0  0  0  0  0  0  0  0  0  0  0  0
   54.0170   33.6800   -2.1630 H   0  0  0  0  0  0  0  0  0  0  0  0
   51.6770   39.6160   -1.2350 H   0  0  0  0  0  0  0  0  0  0  0  0
   48.1100   41.2100   -4.1660 H   0  0  0  0  0  0  0  0  0  0  0  0
   47.8480   39.1760   -2.9040 H   0  0  0  0  0  0  0  0  0  0  0  0
   52.4810   43.3440   -4.2960 H   0  0  0  0  0  0  0  0  0  0  0  0
   52.5930   42.1370   -3.9020 H   0  0  0  0  0  0  0  0  0  0  0  0
  1 30  1  0  0  0  0
  2 32  1  0  0  0  0
  3 33  1  0  0  0  0
  4  3  2  0  0  0  0
  5  6  1  0  0  0  0
  5  4  1  0  0  0  0
  6  1  2  0  0  0  0
  7  6  1  0  0  0  0
  8  9  1  0  0  0  0
  8  7  2  0  0  0  0
  9  5  2  0  0  0  0
 10  7  1  0  0  0  0
 10 35  1  0  0  0  0
 11 37  1  1  0  0  0
 11 10  1  0  0  0  0
 12 13  1  0  0  0  0
 12 11  1  0  0  0  0
 13 38  1  6  0  0  0
 13  8  1  0  0  0  0
 14 28  1  0  0  0  0
 15 16  1  0  0  0  0
 15 14  1  0  0  0  0
 16 12  1  0  0  0  0
 17 14  1  0  0  0  0
 17 41  1  0  0  0  0
 18 16  2  0  0  0  0
 19 20  1  0  0  0  0
 19 13  1  0  0  0  0
 20 44  1  0  0  0  0
 21 20  2  0  0  0  0
 22 21  1  0  0  0  0
 23 22  2  0  0  0  0
 23 24  1  0  0  0  0
 24 19  2  0  0  0  0
 25 21  1  0  0  0  0
 27 26  1  0  0  0  0
 27 22  1  0  0  0  0
 28 11  1  0  0  0  0
 28 29  2  0  0  0  0
 34  4  1  0  0  0  0
 36 10  1  0  0  0  0
 39 15  1  0  0  0  0
 40 15  1  0  0  0  0
 42 17  1  0  0  0  0
 43 17  1  0  0  0  0
 45 23  1  0  0  0  0
 46 24  1  0  0  0  0
 47 26  1  0  0  0  0
 48 26  1  0  0  0  0
M  END
>  <Pose>
2

>  <Score>
-3.11

$$$$

 OpenBabel10152117013D

 48 49  0  0  1  0  0  0  0  0999 V2000
   50.6260   37.7970    1.7890 C   0  0  0  0  0  0  0  0  0  0  0  0
   50.6420   36.6210    1.0560 C   0  0  0  0  0  0  0  0  0  0  0  0
   50.7910   36.5490   -0.3550 C   0  0  0  0  0  0  0  0  0  0  0  0
   50.9330   37.7380   -1.1050 C   0  0  0  0  0  0  0  0  0  0  0  0
   50.9190   38.9160   -0.3790 C   0  0  0  0  0  0  0  0  0  0  0  0
   50.7710   38.9620    1.0160 C   0  0  0  0  0  0  0  0  0  0  0  0
   50.8030   40.3820    1.3960 C   0  0  0  0  0  0  0  0  0  0  0  0
   50.9630   41.0530    0.2270 C   0  0  0  0  0  0  0  0  0  0  0  0
   51.0310   40.2160   -0.7920 N   0  0  0  0  0  0  0  0  0  0  0  0
   50.6870   41.0200    2.7510 C   0  0  0  0  0  0  0  0  0  0  0  0
   51.3570   42.4010    2.7600 C   0  0  1  0  0  0  0  0  0  0  0  0
   51.2520   43.1560    1.5070 N   0  0  0  0  0  0  0  0  0  0  0  0
   51.0370   42.5280    0.2140 C   0  0  2  0  0  0  0  0  0  0  0  0
   51.3780   44.5060    3.9900 N   0  0  0  0  0  0  0  0  0  0  0  0
   51.6050   45.2190    2.7320 C   0  0  0  0  0  0  0  0  0  0  0  0
   51.3820   44.4990    1.4780 C   0  0  0  0  0  0  0  0  0  0  0  0
   51.2820   45.2450    5.2350 C   0  0  0  0  0  0  0  0  0  0  0  0
   51.3220   45.1600    0.4720 O   0  0  0  0  0  0  0  0  0  0  0  0
   49.7110   42.9700   -0.4980 C   0  0  0  0  0  0  0  0  0  0  0  0
   48.4970   42.9760    0.1710 C   0  0  0  0  0  0  0  0  0  0  0  0
   47.3520   43.3810   -0.5190 C   0  0  0  0  0  0  0  0  0  0  0  0
   47.3980   43.7620   -1.8230 C   0  0  0  0  0  0  0  0  0  0  0  0
   48.5760   43.7720   -2.5350 C   0  0  0  0  0  0  0  0  0  0  0  0
   49.7110   43.3780   -1.8600 C   0  0  0  0  0  0  0  0  0  0  0  0
   46.0790   43.4460   -0.0120 O   0  0  0  0  0  0  0  0  0  0  0  0
   45.4110   44.1970   -1.0690 C   0  0  0  0  0  0  0  0  0  0  0  0
   46.1590   44.1100   -2.2770 O   0  0  0  0  0  0  0  0  0  0  0  0
   51.2660   43.1850    4.0310 C   0  0  0  0  0  0  0  0  0  0  0  0
   51.0800   42.5200    5.0630 O   0  0  0  0  0  0  0  0  0  0  0  0
   50.5170   37.8160    2.8150 H   0  0  0  0  0  0  0  0  0  0  0  0
   50.5380   35.7340    1.5730 H   0  0  0  0  0  0  0  0  0  0  0  0
   50.4750   35.7570    1.5950 H   0  0  0  0  0  0  0  0  0  0  0  0
   50.7940   35.6320   -0.8300 H   0  0  0  0  0  0  0  0  0  0  0  0
   51.0420   37.7290   -2.1320 H   0  0  0  0  0  0  0  0  0  0  0  0
   51.1640   40.3940    3.4760 H   0  0  0  0  0  0  0  0  0  0  0  0
   49.6510   41.1400    2.9870 H   0  0  0  0  0  0  0  0  0  0  0  0
   52.3970   42.1470    2.7800 H   0  0  0  0  0  0  0  0  0  0  0  0
   51.9110   42.8620   -0.3060 H   0  0  0  0  0  0  0  0  0  0  0  0
   52.6240   45.5460    2.7330 H   0  0  0  0  0  0  0  0  0  0  0  0
   50.8650   45.9910    2.7290 H   0  0  0  0  0  0  0  0  0  0  0  0
   51.1160   44.5630    6.0430 H   0  0  0  0  0  0  0  0  0  0  0  0
   50.4660   45.9360    5.1780 H   0  0  0  0  0  0  0  0  0  0  0  0
   52.1920   45.7820    5.4030 H   0  0  0  0  0  0  0  0  0  0  0  0
   48.4400   42.6880    1.1600 H   0  0  0  0  0  0  0  0  0  0  0  0
   48.6080   44.0610   -3.5250 H   0  0  0  0  0  0  0  0  0  0  0  0
   50.6080   43.3780   -2.3710 H   0  0  0  0  0  0  0  0  0  0  0  0
   44.5260   44.7160   -0.9570 H   0  0  0  0  0  0  0  0  0  0  0  0
   45.5370   44.7080   -0.1810 H   0  0  0  0  0  0  0  0  0  0  0  0
  1 30  1  0  0  0  0
  2 31  1  0  0  0  0
  4  5  1  0  0  0  0
  4  3  2  0  0  0  0
  5  6  1  0  0  0  0
  6  7  1  0  0  0  0
  6  1  2  0  0  0  0
  7 10  1  0  0  0  0
  8  7  2  0  0  0  0
  9  5  2  0  0  0  0
  9  8  1  0  0  0  0
 10 11  1  0  0  0  0
 10 36  1  0  0  0  0
 10 35  1  0  0  0  0
 11 37  1  6  0  0  0
 11 28  1  0  0  0  0
 12 11  1  0  0  0  0
 13 38  1  6  0  0  0
 13  8  1  0  0  0  0
 13 12  1  0  0  0  0
 14 28  1  0  0  0  0
 14 17  1  0  0  0  0
 15 39  1  0  0  0  0
 15 14  1  0  0  0  0
 16 12  1  0  0  0  0
 16 15  1  0  0  0  0
 17 43  1  0  0  0  0
 17 41  1  0  0  0  0
 18 16  2  0  0  0  0
 19 20  1  0  0  0  0
 19 13  1  0  0  0  0
 20 44  1  0  0  0  0
 21 25  1  0  0  0  0
 21 20  2  0  0  0  0
 22 21  1  0  0  0  0
 23 24  1  0  0  0  0
 23 22  2  0  0  0  0
 24 19  2  0  0  0  0
 26 47  1  0  0  0  0
 26 48  1  0  0  0  0
 27 22  1  0  0  0  0
 27 26  1  0  0  0  0
 28 29  2  0  0  0  0
 33  3  1  0  0  0  0
 34  4  1  0  0  0  0
 40 15  1  0  0  0  0
 42 17  1  0  0  0  0
 45 23  1  0  0  0  0
 46 24  1  0  0  0  0
M  END
>  <Pose>
1

>  <Score>
-2.97

$$$$

 OpenBabel10152117013D

 48 49  0  0  1  0  0  0  0  0999 V2000
   51.9250   43.4180   -2.2170 C   0  0  0  0  0  0  0  0  0  0  0  0
   52.1980   44.7510   -1.9550 C   0  0  0  0  0  0  0  0  0  0  0  0
   52.4880   45.2800   -0.6680 C   0  0  0  0  0  0  0  0  0  0  0  0
   52.5070   44.4200    0.4540 C   0  0  0  0  0  0  0  0  0  0  0  0
   52.2350   43.0870    0.1980 C   0  0  0  0  0  0  0  0  0  0  0  0
   51.9520   42.5880   -1.0820 C   0  0  0  0  0  0  0  0  0  0  0  0
   51.7190   41.1450   -0.9300 C   0  0  0  0  0  0  0  0  0  0  0  0
   51.8780   40.9030    0.3960 C   0  0  0  0  0  0  0  0  0  0  0  0
   52.1750   42.0140    1.0460 N   0  0  0  0  0  0  0  0  0  0  0  0
   51.3760   40.1080   -1.9620 C   0  0  0  0  0  0  0  0  0  0  0  0
   51.8110   38.7130   -1.4970 C   0  0  1  0  0  0  0  0  0  0  0  0
   51.7030   38.4730   -0.0540 N   0  0  0  0  0  0  0  0  0  0  0  0
   51.7140   39.5370    0.9350 C   0  0  2  0  0  0  0  0  0  0  0  0
   51.3770   36.3460   -1.8910 N   0  0  0  0  0  0  0  0  0  0  0  0
   51.6040   36.0850   -0.4690 C   0  0  0  0  0  0  0  0  0  0  0  0
   51.6180   37.2230    0.4500 C   0  0  0  0  0  0  0  0  0  0  0  0
   51.0470   35.2520   -2.7860 C   0  0  0  0  0  0  0  0  0  0  0  0
   51.5460   36.9750    1.6270 O   0  0  0  0  0  0  0  0  0  0  0  0
   50.4070   39.6220    1.7970 C   0  0  0  0  0  0  0  0  0  0  0  0
   50.4290   39.4330    3.1690 C   0  0  0  0  0  0  0  0  0  0  0  0
   49.2300   39.5220    3.8790 C   0  0  0  0  0  0  0  0  0  0  0  0
   48.0480   39.7850    3.2610 C   0  0  0  0  0  0  0  0  0  0  0  0
   47.9690   39.9790    1.9010 C   0  0  0  0  0  0  0  0  0  0  0  0
   49.1480   39.8960    1.1930 C   0  0  0  0  0  0  0  0  0  0  0  0
   49.0740   39.3620    5.2330 O   0  0  0  0  0  0  0  0  0  0  0  0
   47.7120   39.8560    5.4030 C   0  0  0  0  0  0  0  0  0  0  0  0
   47.0210   39.8200    4.1590 O   0  0  0  0  0  0  0  0  0  0  0  0
   51.4760   37.5670   -2.3990 C   0  0  0  0  0  0  0  0  0  0  0  0
   51.3040   37.8540   -3.5950 O   0  0  0  0  0  0  0  0  0  0  0  0
   51.7190   43.0650   -3.1640 H   0  0  0  0  0  0  0  0  0  0  0  0
   52.1910   45.4060   -2.7510 H   0  0  0  0  0  0  0  0  0  0  0  0
   52.1230   45.3890   -2.7620 H   0  0  0  0  0  0  0  0  0  0  0  0
   52.6840   46.2860   -0.5530 H   0  0  0  0  0  0  0  0  0  0  0  0
   52.7110   44.7650    1.4050 H   0  0  0  0  0  0  0  0  0  0  0  0
   51.8770   40.3450   -2.8770 H   0  0  0  0  0  0  0  0  0  0  0  0
   50.3160   40.1070   -2.1090 H   0  0  0  0  0  0  0  0  0  0  0  0
   52.8710   38.7480   -1.6380 H   0  0  0  0  0  0  0  0  0  0  0  0
   52.5680   39.2500    1.5130 H   0  0  0  0  0  0  0  0  0  0  0  0
   52.5520   35.5970   -0.3840 H   0  0  0  0  0  0  0  0  0  0  0  0
   50.7520   35.5120   -0.1670 H   0  0  0  0  0  0  0  0  0  0  0  0
   50.9190   35.6300   -3.7790 H   0  0  0  0  0  0  0  0  0  0  0  0
   50.1400   34.7860   -2.4610 H   0  0  0  0  0  0  0  0  0  0  0  0
   51.8400   34.5330   -2.7780 H   0  0  0  0  0  0  0  0  0  0  0  0
   51.3150   39.2300    3.6570 H   0  0  0  0  0  0  0  0  0  0  0  0
   47.0700   40.1770    1.4340 H   0  0  0  0  0  0  0  0  0  0  0  0
   49.1160   40.0400    0.1720 H   0  0  0  0  0  0  0  0  0  0  0  0
   47.3090   40.1840    6.2940 H   0  0  0  0  0  0  0  0  0  0  0  0
   48.4500   40.4610    5.7980 H   0  0  0  0  0  0  0  0  0  0  0  0
  1  6  1  0  0  0  0
  3 33  1  0  0  0  0
  3  4  2  0  0  0  0
  4 34  1  0  0  0  0
  5  4  1  0  0  0  0
  5  9  1  0  0  0  0
  6  7  1  0  0  0  0
  6  5  2  0  0  0  0
  7  8  2  0  0  0  0
  8 13  1  0  0  0  0
  8  9  1  0  0  0  0
 10 11  1  0  0  0  0
 10  7  1  0  0  0  0
 11 37  1  6  0  0  0
 11 12  1  0  0  0  0
 12 16  1  0  0  0  0
 12 13  1  0  0  0  0
 13 38  1  1  0  0  0
 13 19  1  0  0  0  0
 14 15  1  0  0  0  0
 15 39  1  0  0  0  0
 15 40  1  0  0  0  0
 15 16  1  0  0  0  0
 16 18  2  0  0  0  0
 17 43  1  0  0  0  0
 17 42  1  0  0  0  0
 17 14  1  0  0  0  0
 19 20  1  0  0  0  0
 20 44  1  0  0  0  0
 20 21  2  0  0  0  0
 21 25  1  0  0  0  0
 22 21  1  0  0  0  0
 22 27  1  0  0  0  0
 23 22  2  0  0  0  0
 24 19  2  0  0  0  0
 24 23  1  0  0  0  0
 26 48  1  0  0  0  0
 26 47  1  0  0  0  0
 27 26  1  0  0  0  0
 28 14  1  0  0  0  0
 28 11  1  0  0  0  0
 29 28  2  0  0  0  0
 30  1  1  0  0  0  0
 31  2  1  0  0  0  0
 35 10  1  0  0  0  0
 36 10  1  0  0  0  0
 41 17  1  0  0  0  0
 45 23  1  0  0  0  0
 46 24  1  0  0  0  0
M  END
>  <Pose>
1

>  <Score>
-2.96

$$$$
