
 OpenBabel10152117013D

 48 49  0  0  1  0  0  0  0  0999 V2000
   30.7270   49.7250    5.4190 C   0  0  0  0  0  0  0  0  0  0  0  0
   30.3080   50.4680    6.5110 C   0  0  0  0  0  0  0  0  0  0  0  0
   29.4610   49.9830    7.5430 C   0  0  0  0  0  0  0  0  0  0  0  0
   28.9850   48.6520    7.4910 C   0  0  0  0  0  0  0  0  0  0  0  0
   29.4010   47.9050    6.4020 C   0  0  0  0  0  0  0  0  0  0  0  0
   30.2390   48.4070    5.3960 C   0  0  0  0  0  0  0  0  0  0  0  0
   30.4390   47.3150    4.4310 C   0  0  0  0  0  0  0  0  0  0  0  0
   29.7220   46.2750    4.9280 C   0  0  0  0  0  0  0  0  0  0  0  0
   29.1270   46.6090    6.0580 N   0  0  0  0  0  0  0  0  0  0  0  0
   31.2390   47.2850    3.1600 C   0  0  0  0  0  0  0  0  0  0  0  0
   31.6550   45.8490    2.8140 C   0  0  1  0  0  0  0  0  0  0  0  0
   30.6820   44.8120    3.1720 N   0  0  0  0  0  0  0  0  0  0  0  0
   29.6820   44.9830    4.2130 C   0  0  2  0  0  0  0  0  0  0  0  0
   32.3850   44.4710    0.9390 N   0  0  0  0  0  0  0  0  0  0  0  0
   31.6550   43.3390    1.5090 C   0  0  0  0  0  0  0  0  0  0  0  0
   30.6800   43.6050    2.5670 C   0  0  0  0  0  0  0  0  0  0  0  0
   33.1190   44.3100   -0.3030 C   0  0  0  0  0  0  0  0  0  0  0  0
   29.9140   42.7160    2.8400 O   0  0  0  0  0  0  0  0  0  0  0  0
   28.2030   44.8780    3.7000 C   0  0  0  0  0  0  0  0  0  0  0  0
   27.6490   45.8470    2.8800 C   0  0  0  0  0  0  0  0  0  0  0  0
   26.3270   45.6950    2.4570 C   0  0  0  0  0  0  0  0  0  0  0  0
   25.5730   44.6270    2.8300 C   0  0  0  0  0  0  0  0  0  0  0  0
   26.0730   43.6360    3.6450 C   0  0  0  0  0  0  0  0  0  0  0  0
   27.3780   43.7780    4.0640 C   0  0  0  0  0  0  0  0  0  0  0  0
   25.6280   46.5550    1.6480 O   0  0  0  0  0  0  0  0  0  0  0  0
   24.4650   45.7350    1.3310 C   0  0  0  0  0  0  0  0  0  0  0  0
   24.3200   44.6990    2.2970 O   0  0  0  0  0  0  0  0  0  0  0  0
   32.4080   45.6560    1.5350 C   0  0  0  0  0  0  0  0  0  0  0  0
   33.0130   46.6540    1.1090 O   0  0  0  0  0  0  0  0  0  0  0  0
   31.3440   50.1070    4.6860 H   0  0  0  0  0  0  0  0  0  0  0  0
   30.6350   51.4440    6.5800 H   0  0  0  0  0  0  0  0  0  0  0  0
   30.6020   51.4570    6.5180 H   0  0  0  0  0  0  0  0  0  0  0  0
   29.1930   50.5980    8.3270 H   0  0  0  0  0  0  0  0  0  0  0  0
   28.3670   48.2620    8.2190 H   0  0  0  0  0  0  0  0  0  0  0  0
   32.1170   47.8840    3.2840 H   0  0  0  0  0  0  0  0  0  0  0  0
   30.6360   47.6690    2.3650 H   0  0  0  0  0  0  0  0  0  0  0  0
   32.4430   45.6670    3.5150 H   0  0  0  0  0  0  0  0  0  0  0  0
   29.9470   44.1770    4.8650 H   0  0  0  0  0  0  0  0  0  0  0  0
   32.3810   42.6630    1.9090 H   0  0  0  0  0  0  0  0  0  0  0  0
   31.0670   42.9680    0.6960 H   0  0  0  0  0  0  0  0  0  0  0  0
   33.5870   45.2370   -0.5630 H   0  0  0  0  0  0  0  0  0  0  0  0
   32.4450   44.0200   -1.0810 H   0  0  0  0  0  0  0  0  0  0  0  0
   33.8680   43.5560   -0.1790 H   0  0  0  0  0  0  0  0  0  0  0  0
   28.2030   46.6670    2.5860 H   0  0  0  0  0  0  0  0  0  0  0  0
   25.4980   42.8270    3.9280 H   0  0  0  0  0  0  0  0  0  0  0  0
   27.7770   43.0470    4.6740 H   0  0  0  0  0  0  0  0  0  0  0  0
   23.8400   45.8830    0.5240 H   0  0  0  0  0  0  0  0  0  0  0  0
   25.1140   45.8970    0.5440 H   0  0  0  0  0  0  0  0  0  0  0  0
  2 31  1  0  0  0  0
  3 33  1  0  0  0  0
  4  3  2  0  0  0  0
  4 34  1  0  0  0  0
  5  4  1  0  0  0  0
  6  1  1  0  0  0  0
  6  5  2  0  0  0  0
  7  8  2  0  0  0  0
  7  6  1  0  0  0  0
  8  9  1  0  0  0  0
  9  5  1  0  0  0  0
 10 35  1  0  0  0  0
 10  7  1  0  0  0  0
 11 10  1  0  0  0  0
 11 12  1  0  0  0  0
 11 37  1  1  0  0  0
 12 13  1  0  0  0  0
 13 38  1  1  0  0  0
 13  8  1  0  0  0  0
 14 15  1  0  0  0  0
 14 28  1  0  0  0  0
 15 39  1  0  0  0  0
 15 16  1  0  0  0  0
 16 18  2  0  0  0  0
 16 12  1  0  0  0  0
 17 43  1  0  0  0  0
 17 14  1  0  0  0  0
 19 24  1  0  0  0  0
 19 13  1  0  0  0  0
 20 19  2  0  0  0  0
 21 22  2  0  0  0  0
 21 20  1  0  0  0  0
 22 23  1  0  0  0  0
 23 45  1  0  0  0  0
 23 24  2  0  0  0  0
 24 46  1  0  0  0  0
 25 21  1  0  0  0  0
 26 27  1  0  0  0  0
 27 22  1  0  0  0  0
 28 11  1  0  0  0  0
 29 28  2  0  0  0  0
 30  1  1  0  0  0  0
 36 10  1  0  0  0  0
 40 15  1  0  0  0  0
 41 17  1  0  0  0  0
 42 17  1  0  0  0  0
 44 20  1  0  0  0  0
 47 26  1  0  0  0  0
 48 26  1  0  0  0  0
M  END
>  <Pose>
2

>  <Score>
-4.81

$$$$

 OpenBabel10152117013D

 48 49  0  0  1  0  0  0  0  0999 V2000
   30.5320   49.7400    5.5580 C   0  0  0  0  0  0  0  0  0  0  0  0
   30.0460   50.4090    6.6700 C   0  0  0  0  0  0  0  0  0  0  0  0
   29.2320   49.8230    7.6760 C   0  0  0  0  0  0  0  0  0  0  0  0
   28.8660   48.4610    7.5750 C   0  0  0  0  0  0  0  0  0  0  0  0
   29.3490   47.7870    6.4660 C   0  0  0  0  0  0  0  0  0  0  0  0
   30.1520   48.3880    5.4860 C   0  0  0  0  0  0  0  0  0  0  0  0
   30.4460   47.3490    4.4880 C   0  0  0  0  0  0  0  0  0  0  0  0
   29.8120   46.2390    4.9420 C   0  0  0  0  0  0  0  0  0  0  0  0
   29.1830   46.4850    6.0760 N   0  0  0  0  0  0  0  0  0  0  0  0
   31.2570   47.4270    3.2250 C   0  0  0  0  0  0  0  0  0  0  0  0
   31.7900   46.0410    2.8350 C   0  0  1  0  0  0  0  0  0  0  0  0
   30.9000   44.9180    3.1490 N   0  0  0  0  0  0  0  0  0  0  0  0
   29.8820   44.9720    4.1840 C   0  0  2  0  0  0  0  0  0  0  0  0
   32.6430   44.7910    0.9240 N   0  0  0  0  0  0  0  0  0  0  0  0
   32.0010   43.5850    1.4480 C   0  0  0  0  0  0  0  0  0  0  0  0
   31.0000   43.7360    2.5040 C   0  0  0  0  0  0  0  0  0  0  0  0
   33.3970   44.7320   -0.3150 C   0  0  0  0  0  0  0  0  0  0  0  0
   30.3060   42.7800    2.7390 O   0  0  0  0  0  0  0  0  0  0  0  0
   28.4200   44.7660    3.6520 C   0  0  0  0  0  0  0  0  0  0  0  0
   27.6570   43.6760    4.0350 C   0  0  0  0  0  0  0  0  0  0  0  0
   26.3620   43.5500    3.5270 C   0  0  0  0  0  0  0  0  0  0  0  0
   25.8370   44.4640    2.6690 C   0  0  0  0  0  0  0  0  0  0  0  0
   26.5520   45.5640    2.2540 C   0  0  0  0  0  0  0  0  0  0  0  0
   27.8290   45.6970    2.7540 C   0  0  0  0  0  0  0  0  0  0  0  0
   25.4760   42.5380    3.8000 O   0  0  0  0  0  0  0  0  0  0  0  0
   24.2510   43.1020    3.2470 C   0  0  0  0  0  0  0  0  0  0  0  0
   24.5640   44.1270    2.3100 O   0  0  0  0  0  0  0  0  0  0  0  0
   32.5650   45.9530    1.5590 C   0  0  0  0  0  0  0  0  0  0  0  0
   33.0910   47.0100    1.1720 O   0  0  0  0  0  0  0  0  0  0  0  0
   31.1220   50.1940    4.8440 H   0  0  0  0  0  0  0  0  0  0  0  0
   30.2930   51.4050    6.7740 H   0  0  0  0  0  0  0  0  0  0  0  0
   30.2600   51.4180    6.7120 H   0  0  0  0  0  0  0  0  0  0  0  0
   28.9110   50.3880    8.4770 H   0  0  0  0  0  0  0  0  0  0  0  0
   28.2760   47.9980    8.2830 H   0  0  0  0  0  0  0  0  0  0  0  0
   32.0820   48.0900    3.3780 H   0  0  0  0  0  0  0  0  0  0  0  0
   30.6300   47.7880    2.4360 H   0  0  0  0  0  0  0  0  0  0  0  0
   32.5840   45.8990    3.5380 H   0  0  0  0  0  0  0  0  0  0  0  0
   30.2060   44.1690    4.8120 H   0  0  0  0  0  0  0  0  0  0  0  0
   32.7760   42.9560    1.8330 H   0  0  0  0  0  0  0  0  0  0  0  0
   31.4520   43.1960    0.6170 H   0  0  0  0  0  0  0  0  0  0  0  0
   33.7900   45.7010   -0.5400 H   0  0  0  0  0  0  0  0  0  0  0  0
   32.7540   44.4150   -1.1090 H   0  0  0  0  0  0  0  0  0  0  0  0
   34.2030   44.0360   -0.2090 H   0  0  0  0  0  0  0  0  0  0  0  0
   28.0370   42.9690    4.6840 H   0  0  0  0  0  0  0  0  0  0  0  0
   26.1510   46.2560    1.6020 H   0  0  0  0  0  0  0  0  0  0  0  0
   28.3860   46.5150    2.4610 H   0  0  0  0  0  0  0  0  0  0  0  0
   23.2960   42.8030    3.4990 H   0  0  0  0  0  0  0  0  0  0  0  0
   24.2770   43.0380    4.2770 H   0  0  0  0  0  0  0  0  0  0  0  0
  2 31  1  0  0  0  0
  3 33  1  0  0  0  0
  4  3  2  0  0  0  0
  4 34  1  0  0  0  0
  5  4  1  0  0  0  0
  6  1  1  0  0  0  0
  6  5  2  0  0  0  0
  7  8  2  0  0  0  0
  7  6  1  0  0  0  0
  8  9  1  0  0  0  0
  9  5  1  0  0  0  0
 10 35  1  0  0  0  0
 10  7  1  0  0  0  0
 11 12  1  0  0  0  0
 11 10  1  0  0  0  0
 11 37  1  1  0  0  0
 12 13  1  0  0  0  0
 13 38  1  1  0  0  0
 13  8  1  0  0  0  0
 14 15  1  0  0  0  0
 14 28  1  0  0  0  0
 15 39  1  0  0  0  0
 15 16  1  0  0  0  0
 16 18  2  0  0  0  0
 16 12  1  0  0  0  0
 17 43  1  0  0  0  0
 17 14  1  0  0  0  0
 19 20  1  0  0  0  0
 19 13  1  0  0  0  0
 20 44  1  0  0  0  0
 21 25  1  0  0  0  0
 21 20  2  0  0  0  0
 22 21  1  0  0  0  0
 23 22  2  0  0  0  0
 23 24  1  0  0  0  0
 24 19  2  0  0  0  0
 26 47  1  0  0  0  0
 26 48  1  0  0  0  0
 27 22  1  0  0  0  0
 27 26  1  0  0  0  0
 28 11  1  0  0  0  0
 29 28  2  0  0  0  0
 30  1  1  0  0  0  0
 36 10  1  0  0  0  0
 40 15  1  0  0  0  0
 41 17  1  0  0  0  0
 42 17  1  0  0  0  0
 45 23  1  0  0  0  0
 46 24  1  0  0  0  0
M  END
>  <Pose>
2

>  <Score>
-4.77

$$$$

 OpenBabel10152117013D

 48 49  0  0  1  0  0  0  0  0999 V2000
   30.1410   43.0270    2.7740 C   0  0  0  0  0  0  0  0  0  0  0  0
   30.4640   42.0990    1.7980 C   0  0  0  0  0  0  0  0  0  0  0  0
   30.9210   42.4230    0.4920 C   0  0  0  0  0  0  0  0  0  0  0  0
   31.0680   43.7780    0.1190 C   0  0  0  0  0  0  0  0  0  0  0  0
   30.7470   44.7110    1.0910 C   0  0  0  0  0  0  0  0  0  0  0  0
   30.2990   44.3650    2.3750 C   0  0  0  0  0  0  0  0  0  0  0  0
   30.0670   45.6270    3.0930 C   0  0  0  0  0  0  0  0  0  0  0  0
   30.3880   46.6000    2.2030 C   0  0  0  0  0  0  0  0  0  0  0  0
   30.7790   46.0790    1.0550 N   0  0  0  0  0  0  0  0  0  0  0  0
   29.5820   45.8630    4.4950 C   0  0  0  0  0  0  0  0  0  0  0  0
   30.0530   47.2300    5.0100 C   0  0  1  0  0  0  0  0  0  0  0  0
   30.1240   48.2890    3.9970 N   0  0  0  0  0  0  0  0  0  0  0  0
   30.2740   48.0250    2.5760 C   0  0  2  0  0  0  0  0  0  0  0  0
   29.5400   48.9180    6.6930 N   0  0  0  0  0  0  0  0  0  0  0  0
   29.9390   49.9590    5.7460 C   0  0  0  0  0  0  0  0  0  0  0  0
   30.0850   49.5950    4.3370 C   0  0  0  0  0  0  0  0  0  0  0  0
   29.0840   49.2810    8.0220 C   0  0  0  0  0  0  0  0  0  0  0  0
   30.1580   50.4990    3.5440 O   0  0  0  0  0  0  0  0  0  0  0  0
   29.0860   48.5540    1.6990 C   0  0  0  0  0  0  0  0  0  0  0  0
   27.8220   47.9930    1.7760 C   0  0  0  0  0  0  0  0  0  0  0  0
   26.8060   48.5110    0.9690 C   0  0  0  0  0  0  0  0  0  0  0  0
   27.0270   49.5430    0.1120 C   0  0  0  0  0  0  0  0  0  0  0  0
   28.2640   50.1350   -0.0050 C   0  0  0  0  0  0  0  0  0  0  0  0
   29.2700   49.6330    0.7900 C   0  0  0  0  0  0  0  0  0  0  0  0
   25.5060   48.0760    0.9200 O   0  0  0  0  0  0  0  0  0  0  0  0
   24.8930   49.1580    0.1580 C   0  0  0  0  0  0  0  0  0  0  0  0
   25.8900   49.8700   -0.5670 O   0  0  0  0  0  0  0  0  0  0  0  0
   29.5910   47.6310    6.3750 C   0  0  0  0  0  0  0  0  0  0  0  0
   29.2740   46.6990    7.1330 O   0  0  0  0  0  0  0  0  0  0  0  0
   29.8130   42.7580    3.7150 H   0  0  0  0  0  0  0  0  0  0  0  0
   30.3660   41.0990    2.0360 H   0  0  0  0  0  0  0  0  0  0  0  0
   30.2970   41.1110    2.0470 H   0  0  0  0  0  0  0  0  0  0  0  0
   31.1440   41.6730   -0.1810 H   0  0  0  0  0  0  0  0  0  0  0  0
   31.3950   44.0560   -0.8200 H   0  0  0  0  0  0  0  0  0  0  0  0
   29.9680   45.0960    5.1340 H   0  0  0  0  0  0  0  0  0  0  0  0
   28.5120   45.8450    4.4970 H   0  0  0  0  0  0  0  0  0  0  0  0
   31.0870   47.0500    5.2160 H   0  0  0  0  0  0  0  0  0  0  0  0
   31.1890   48.5440    2.3820 H   0  0  0  0  0  0  0  0  0  0  0  0
   30.8830   50.3400    6.0740 H   0  0  0  0  0  0  0  0  0  0  0  0
   29.1240   50.6530    5.7570 H   0  0  0  0  0  0  0  0  0  0  0  0
   28.8370   48.3960    8.5700 H   0  0  0  0  0  0  0  0  0  0  0  0
   28.2190   49.9060    7.9450 H   0  0  0  0  0  0  0  0  0  0  0  0
   29.8610   49.8110    8.5330 H   0  0  0  0  0  0  0  0  0  0  0  0
   27.6330   47.2080    2.4180 H   0  0  0  0  0  0  0  0  0  0  0  0
   28.4290   50.9180   -0.6580 H   0  0  0  0  0  0  0  0  0  0  0  0
   30.2070   50.0610    0.7230 H   0  0  0  0  0  0  0  0  0  0  0  0
   23.8850   49.3760    0.1470 H   0  0  0  0  0  0  0  0  0  0  0  0
   24.6220   49.1150    1.1530 H   0  0  0  0  0  0  0  0  0  0  0  0
  1 30  1  0  0  0  0
  2 32  1  0  0  0  0
  4  3  2  0  0  0  0
  4  5  1  0  0  0  0
  5  6  1  0  0  0  0
  6  1  2  0  0  0  0
  6  7  1  0  0  0  0
  7 10  1  0  0  0  0
  8 13  1  0  0  0  0
  8  7  2  0  0  0  0
  9  5  2  0  0  0  0
  9  8  1  0  0  0  0
 10 36  1  0  0  0  0
 10 11  1  0  0  0  0
 10 35  1  0  0  0  0
 11 37  1  1  0  0  0
 11 28  1  0  0  0  0
 12 16  1  0  0  0  0
 12 11  1  0  0  0  0
 13 38  1  6  0  0  0
 13 12  1  0  0  0  0
 14 17  1  0  0  0  0
 15 40  1  0  0  0  0
 15 39  1  0  0  0  0
 15 14  1  0  0  0  0
 16 15  1  0  0  0  0
 17 43  1  0  0  0  0
 17 41  1  0  0  0  0
 18 16  2  0  0  0  0
 19 20  1  0  0  0  0
 19 13  1  0  0  0  0
 20 44  1  0  0  0  0
 21 20  2  0  0  0  0
 22 21  1  0  0  0  0
 23 22  2  0  0  0  0
 23 24  1  0  0  0  0
 24 19  2  0  0  0  0
 25 21  1  0  0  0  0
 26 48  1  0  0  0  0
 27 22  1  0  0  0  0
 27 26  1  0  0  0  0
 28 14  1  0  0  0  0
 28 29  2  0  0  0  0
 33  3  1  0  0  0  0
 34  4  1  0  0  0  0
 42 17  1  0  0  0  0
 45 23  1  0  0  0  0
 46 24  1  0  0  0  0
 47 26  1  0  0  0  0
M  END
>  <Pose>
1

>  <Score>
-3.78

$$$$
