
 OpenBabel10152117013D

 48 49  0  0  1  0  0  0  0  0999 V2000
   38.8730   20.3680   29.3260 C   0  0  0  0  0  0  0  0  0  0  0  0
   38.4080   20.3960   30.6300 C   0  0  0  0  0  0  0  0  0  0  0  0
   38.4200   19.2870   31.5190 C   0  0  0  0  0  0  0  0  0  0  0  0
   38.9330   18.0460   31.0800 C   0  0  0  0  0  0  0  0  0  0  0  0
   39.4000   18.0110   29.7770 C   0  0  0  0  0  0  0  0  0  0  0  0
   39.3780   19.1200   28.9190 C   0  0  0  0  0  0  0  0  0  0  0  0
   39.9510   18.6750   27.6410 C   0  0  0  0  0  0  0  0  0  0  0  0
   40.2620   17.3680   27.8330 C   0  0  0  0  0  0  0  0  0  0  0  0
   39.9490   16.9840   29.0570 N   0  0  0  0  0  0  0  0  0  0  0  0
   40.1710   19.4370   26.3650 C   0  0  0  0  0  0  0  0  0  0  0  0
   41.2970   18.8010   25.5390 C   0  0  1  0  0  0  0  0  0  0  0  0
   41.3860   17.3390   25.6250 N   0  0  0  0  0  0  0  0  0  0  0  0
   40.8680   16.5730   26.7450 C   0  0  2  0  0  0  0  0  0  0  0  0
   42.1690   18.6880   23.2650 N   0  0  0  0  0  0  0  0  0  0  0  0
   42.5520   17.2960   23.4980 C   0  0  0  0  0  0  0  0  0  0  0  0
   41.9950   16.6100   24.6650 C   0  0  0  0  0  0  0  0  0  0  0  0
   42.4360   19.3090   21.9800 C   0  0  0  0  0  0  0  0  0  0  0  0
   42.1090   15.4110   24.7000 O   0  0  0  0  0  0  0  0  0  0  0  0
   39.7470   15.5480   26.3540 C   0  0  0  0  0  0  0  0  0  0  0  0
   39.6870   14.2860   26.9230 C   0  0  0  0  0  0  0  0  0  0  0  0
   38.6630   13.4200   26.5320 C   0  0  0  0  0  0  0  0  0  0  0  0
   37.7320   13.7810   25.6110 C   0  0  0  0  0  0  0  0  0  0  0  0
   37.7450   15.0210   25.0130 C   0  0  0  0  0  0  0  0  0  0  0  0
   38.7500   15.8830   25.3950 C   0  0  0  0  0  0  0  0  0  0  0  0
   38.4590   12.1440   26.9920 O   0  0  0  0  0  0  0  0  0  0  0  0
   37.1230   11.8840   26.4680 C   0  0  0  0  0  0  0  0  0  0  0  0
   36.8400   12.7720   25.3920 O   0  0  0  0  0  0  0  0  0  0  0  0
   41.5870   19.4180   24.2080 C   0  0  0  0  0  0  0  0  0  0  0  0
   41.2440   20.6040   24.0760 O   0  0  0  0  0  0  0  0  0  0  0  0
   38.8500   21.1920   28.7050 H   0  0  0  0  0  0  0  0  0  0  0  0
   38.0250   21.2870   30.9830 H   0  0  0  0  0  0  0  0  0  0  0  0
   37.9760   21.2840   30.9310 H   0  0  0  0  0  0  0  0  0  0  0  0
   38.0570   19.3880   32.4790 H   0  0  0  0  0  0  0  0  0  0  0  0
   38.9590   17.2160   31.6930 H   0  0  0  0  0  0  0  0  0  0  0  0
   40.4370   20.4470   26.6000 H   0  0  0  0  0  0  0  0  0  0  0  0
   39.2690   19.4140   25.7900 H   0  0  0  0  0  0  0  0  0  0  0  0
   42.1710   19.1090   26.0740 H   0  0  0  0  0  0  0  0  0  0  0  0
   41.7640   16.0920   27.0770 H   0  0  0  0  0  0  0  0  0  0  0  0
   43.6170   17.2720   23.5950 H   0  0  0  0  0  0  0  0  0  0  0  0
   42.1460   16.7660   22.6620 H   0  0  0  0  0  0  0  0  0  0  0  0
   42.0900   20.3210   21.9940 H   0  0  0  0  0  0  0  0  0  0  0  0
   41.9270   18.7680   21.2100 H   0  0  0  0  0  0  0  0  0  0  0  0
   43.4890   19.2940   21.7890 H   0  0  0  0  0  0  0  0  0  0  0  0
   40.3860   13.9920   27.6230 H   0  0  0  0  0  0  0  0  0  0  0  0
   37.0370   15.2920   24.3130 H   0  0  0  0  0  0  0  0  0  0  0  0
   38.7820   16.8200   24.9640 H   0  0  0  0  0  0  0  0  0  0  0  0
   36.4780   11.1630   26.8250 H   0  0  0  0  0  0  0  0  0  0  0  0
   37.1780   11.9920   27.4930 H   0  0  0  0  0  0  0  0  0  0  0  0
  2 31  1  0  0  0  0
  3 33  1  0  0  0  0
  4  3  2  0  0  0  0
  4 34  1  0  0  0  0
  5  4  1  0  0  0  0
  6  1  1  0  0  0  0
  6  5  2  0  0  0  0
  7  8  2  0  0  0  0
  7  6  1  0  0  0  0
  8  9  1  0  0  0  0
  9  5  1  0  0  0  0
 10 35  1  0  0  0  0
 10  7  1  0  0  0  0
 11 12  1  0  0  0  0
 11 37  1  1  0  0  0
 11 10  1  0  0  0  0
 12 13  1  0  0  0  0
 13 38  1  1  0  0  0
 13  8  1  0  0  0  0
 14 15  1  0  0  0  0
 14 28  1  0  0  0  0
 15 39  1  0  0  0  0
 15 16  1  0  0  0  0
 16 18  2  0  0  0  0
 16 12  1  0  0  0  0
 17 41  1  0  0  0  0
 17 14  1  0  0  0  0
 19 13  1  0  0  0  0
 19 20  1  0  0  0  0
 20 44  1  0  0  0  0
 21 20  2  0  0  0  0
 21 25  1  0  0  0  0
 22 21  1  0  0  0  0
 23 24  1  0  0  0  0
 23 22  2  0  0  0  0
 24 19  2  0  0  0  0
 26 47  1  0  0  0  0
 26 48  1  0  0  0  0
 27 22  1  0  0  0  0
 27 26  1  0  0  0  0
 28 11  1  0  0  0  0
 29 28  2  0  0  0  0
 30  1  1  0  0  0  0
 36 10  1  0  0  0  0
 40 15  1  0  0  0  0
 42 17  1  0  0  0  0
 43 17  1  0  0  0  0
 45 23  1  0  0  0  0
 46 24  1  0  0  0  0
M  END
>  <Pose>
1

>  <Score>
-3.59

$$$$

 OpenBabel10152117013D

 48 49  0  0  1  0  0  0  0  0999 V2000
   39.6260   19.2860   27.7080 C   0  0  0  0  0  0  0  0  0  0  0  0
   39.6170   20.1070   28.8240 C   0  0  0  0  0  0  0  0  0  0  0  0
   39.2830   19.6840   30.1390 C   0  0  0  0  0  0  0  0  0  0  0  0
   38.9270   18.3360   30.3700 C   0  0  0  0  0  0  0  0  0  0  0  0
   38.9340   17.5100   29.2590 C   0  0  0  0  0  0  0  0  0  0  0  0
   39.2680   17.9510   27.9700 C   0  0  0  0  0  0  0  0  0  0  0  0
   39.1530   16.7850   27.0830 C   0  0  0  0  0  0  0  0  0  0  0  0
   38.7690   15.7660   27.8930 C   0  0  0  0  0  0  0  0  0  0  0  0
   38.6440   16.1770   29.1420 N   0  0  0  0  0  0  0  0  0  0  0  0
   39.3880   16.6720   25.6030 C   0  0  0  0  0  0  0  0  0  0  0  0
   39.7390   15.2290   25.2180 C   0  0  1  0  0  0  0  0  0  0  0  0
   39.0660   14.1900   26.0040 N   0  0  0  0  0  0  0  0  0  0  0  0
   38.5470   14.4130   27.3430 C   0  0  2  0  0  0  0  0  0  0  0  0
   39.7720   13.7160   23.3050 N   0  0  0  0  0  0  0  0  0  0  0  0
   39.4120   12.6120   24.1940 C   0  0  0  0  0  0  0  0  0  0  0  0
   38.9160   12.9330   25.5330 C   0  0  0  0  0  0  0  0  0  0  0  0
   39.9680   13.4730   21.8880 C   0  0  0  0  0  0  0  0  0  0  0  0
   38.3880   12.0420   26.1480 O   0  0  0  0  0  0  0  0  0  0  0  0
   36.9980   14.2000   27.4700 C   0  0  0  0  0  0  0  0  0  0  0  0
   36.0960   15.0540   26.8580 C   0  0  0  0  0  0  0  0  0  0  0  0
   34.7290   14.8100   27.0100 C   0  0  0  0  0  0  0  0  0  0  0  0
   34.2650   13.7620   27.7420 C   0  0  0  0  0  0  0  0  0  0  0  0
   35.1180   12.8840   28.3730 C   0  0  0  0  0  0  0  0  0  0  0  0
   36.4680   13.1170   28.2250 C   0  0  0  0  0  0  0  0  0  0  0  0
   33.7060   15.5520   26.4760 O   0  0  0  0  0  0  0  0  0  0  0  0
   32.5780   14.6600   26.7170 C   0  0  0  0  0  0  0  0  0  0  0  0
   32.9010   13.7310   27.7460 O   0  0  0  0  0  0  0  0  0  0  0  0
   39.9390   14.9510   23.7610 C   0  0  0  0  0  0  0  0  0  0  0  0
   40.2510   15.9290   23.0630 O   0  0  0  0  0  0  0  0  0  0  0  0
   39.8740   19.6240   26.7660 H   0  0  0  0  0  0  0  0  0  0  0  0
   39.8710   21.0990   28.6900 H   0  0  0  0  0  0  0  0  0  0  0  0
   39.8150   21.1040   28.6460 H   0  0  0  0  0  0  0  0  0  0  0  0
   39.3020   20.3580   30.9200 H   0  0  0  0  0  0  0  0  0  0  0  0
   38.6760   17.9890   31.3090 H   0  0  0  0  0  0  0  0  0  0  0  0
   40.1960   17.3160   25.3260 H   0  0  0  0  0  0  0  0  0  0  0  0
   38.4930   16.9560   25.0900 H   0  0  0  0  0  0  0  0  0  0  0  0
   40.7500   15.1450   25.5570 H   0  0  0  0  0  0  0  0  0  0  0  0
   39.1070   13.6830   27.8880 H   0  0  0  0  0  0  0  0  0  0  0  0
   40.2850   12.0060   24.3170 H   0  0  0  0  0  0  0  0  0  0  0  0
   38.5810   12.1430   23.7100 H   0  0  0  0  0  0  0  0  0  0  0  0
   40.2240   14.3900   21.4010 H   0  0  0  0  0  0  0  0  0  0  0  0
   39.0650   13.0850   21.4650 H   0  0  0  0  0  0  0  0  0  0  0  0
   40.7580   12.7640   21.7530 H   0  0  0  0  0  0  0  0  0  0  0  0
   36.4270   15.8560   26.3000 H   0  0  0  0  0  0  0  0  0  0  0  0
   34.7630   12.0910   28.9290 H   0  0  0  0  0  0  0  0  0  0  0  0
   37.1280   12.4720   28.6860 H   0  0  0  0  0  0  0  0  0  0  0  0
   31.6770   14.6970   26.2160 H   0  0  0  0  0  0  0  0  0  0  0  0
   32.8520   14.7600   25.7270 H   0  0  0  0  0  0  0  0  0  0  0  0
  1  6  1  0  0  0  0
  3  4  2  0  0  0  0
  3 33  1  0  0  0  0
  4 34  1  0  0  0  0
  5  4  1  0  0  0  0
  6  5  2  0  0  0  0
  7  8  2  0  0  0  0
  7  6  1  0  0  0  0
  8  9  1  0  0  0  0
  9  5  1  0  0  0  0
 10  7  1  0  0  0  0
 11 37  1  1  0  0  0
 11 10  1  0  0  0  0
 11 12  1  0  0  0  0
 12 13  1  0  0  0  0
 13 19  1  0  0  0  0
 13 38  1  1  0  0  0
 13  8  1  0  0  0  0
 14 28  1  0  0  0  0
 14 15  1  0  0  0  0
 15 39  1  0  0  0  0
 15 16  1  0  0  0  0
 16 12  1  0  0  0  0
 16 18  2  0  0  0  0
 17 14  1  0  0  0  0
 19 24  1  0  0  0  0
 20 21  1  0  0  0  0
 20 19  2  0  0  0  0
 21 22  2  0  0  0  0
 22 27  1  0  0  0  0
 22 23  1  0  0  0  0
 23 45  1  0  0  0  0
 24 23  2  0  0  0  0
 24 46  1  0  0  0  0
 25 21  1  0  0  0  0
 26 27  1  0  0  0  0
 28 11  1  0  0  0  0
 29 28  2  0  0  0  0
 30  1  1  0  0  0  0
 32  2  1  0  0  0  0
 35 10  1  0  0  0  0
 36 10  1  0  0  0  0
 40 15  1  0  0  0  0
 41 17  1  0  0  0  0
 42 17  1  0  0  0  0
 43 17  1  0  0  0  0
 44 20  1  0  0  0  0
 47 26  1  0  0  0  0
 48 26  1  0  0  0  0
M  END
>  <Pose>
3

>  <Score>
-3.20

$$$$

 OpenBabel10152117013D

 48 49  0  0  1  0  0  0  0  0999 V2000
   30.2910   10.4860   29.7970 C   0  0  0  0  0  0  0  0  0  0  0  0
   29.0080   10.4020   30.3150 C   0  0  0  0  0  0  0  0  0  0  0  0
   28.1330   11.5080   30.4910 C   0  0  0  0  0  0  0  0  0  0  0  0
   28.5620   12.8040   30.1270 C   0  0  0  0  0  0  0  0  0  0  0  0
   29.8420   12.8940   29.6080 C   0  0  0  0  0  0  0  0  0  0  0  0
   30.6880   11.7870   29.4430 C   0  0  0  0  0  0  0  0  0  0  0  0
   31.9440   12.2980   28.8750 C   0  0  0  0  0  0  0  0  0  0  0  0
   31.7520   13.6350   28.7490 C   0  0  0  0  0  0  0  0  0  0  0  0
   30.5480   13.9810   29.1670 N   0  0  0  0  0  0  0  0  0  0  0  0
   33.1990   11.5650   28.4960 C   0  0  0  0  0  0  0  0  0  0  0  0
   33.9800   12.3410   27.4270 C   0  0  1  0  0  0  0  0  0  0  0  0
   33.9070   13.8020   27.5360 N   0  0  0  0  0  0  0  0  0  0  0  0
   32.8200   14.4980   28.2040 C   0  0  2  0  0  0  0  0  0  0  0  0
   36.2130   12.5560   26.4710 N   0  0  0  0  0  0  0  0  0  0  0  0
   35.9780   13.9890   26.2880 C   0  0  0  0  0  0  0  0  0  0  0  0
   34.8460   14.6000   26.9850 C   0  0  0  0  0  0  0  0  0  0  0  0
   37.4770   11.9700   26.0640 C   0  0  0  0  0  0  0  0  0  0  0  0
   34.8200   15.8040   27.0330 O   0  0  0  0  0  0  0  0  0  0  0  0
   33.2740   15.3630   29.4310 C   0  0  0  0  0  0  0  0  0  0  0  0
   34.5450   15.2480   29.9690 C   0  0  0  0  0  0  0  0  0  0  0  0
   34.8880   16.0460   31.0620 C   0  0  0  0  0  0  0  0  0  0  0  0
   34.0090   16.9270   31.6100 C   0  0  0  0  0  0  0  0  0  0  0  0
   32.7340   17.0800   31.1160 C   0  0  0  0  0  0  0  0  0  0  0  0
   32.3890   16.2980   30.0360 C   0  0  0  0  0  0  0  0  0  0  0  0
   36.0960   16.0580   31.7120 O   0  0  0  0  0  0  0  0  0  0  0  0
   35.9480   17.2610   32.5240 C   0  0  0  0  0  0  0  0  0  0  0  0
   34.5700   17.5890   32.6630 O   0  0  0  0  0  0  0  0  0  0  0  0
   35.2890   11.7610   26.9950 C   0  0  0  0  0  0  0  0  0  0  0  0
   35.4230   10.5390   27.1710 O   0  0  0  0  0  0  0  0  0  0  0  0
   30.9020    9.6620   29.6810 H   0  0  0  0  0  0  0  0  0  0  0  0
   28.6640    9.4700   30.5920 H   0  0  0  0  0  0  0  0  0  0  0  0
   28.7170    9.4670   30.6390 H   0  0  0  0  0  0  0  0  0  0  0  0
   27.1890   11.3640   30.8830 H   0  0  0  0  0  0  0  0  0  0  0  0
   27.9580   13.6330   30.2410 H   0  0  0  0  0  0  0  0  0  0  0  0
   32.9400   10.6010   28.1100 H   0  0  0  0  0  0  0  0  0  0  0  0
   33.8150   11.4640   29.3650 H   0  0  0  0  0  0  0  0  0  0  0  0
   33.4020   12.1550   26.5460 H   0  0  0  0  0  0  0  0  0  0  0  0
   32.4530   15.0960   27.3960 H   0  0  0  0  0  0  0  0  0  0  0  0
   35.8320   14.1540   25.2410 H   0  0  0  0  0  0  0  0  0  0  0  0
   36.8380   14.4550   26.7210 H   0  0  0  0  0  0  0  0  0  0  0  0
   37.4670   10.9210   26.2730 H   0  0  0  0  0  0  0  0  0  0  0  0
   38.2760   12.4340   26.6040 H   0  0  0  0  0  0  0  0  0  0  0  0
   37.6200   12.1240   25.0150 H   0  0  0  0  0  0  0  0  0  0  0  0
   35.2270   14.5840   29.5690 H   0  0  0  0  0  0  0  0  0  0  0  0
   32.0680   17.7480   31.5350 H   0  0  0  0  0  0  0  0  0  0  0  0
   31.4380   16.3950   29.6460 H   0  0  0  0  0  0  0  0  0  0  0  0
   36.7280   17.7960   32.9370 H   0  0  0  0  0  0  0  0  0  0  0  0
   36.6290   17.3350   31.7530 H   0  0  0  0  0  0  0  0  0  0  0  0
  2 31  1  0  0  0  0
  3 33  1  0  0  0  0
  4 34  1  0  0  0  0
  4  3  2  0  0  0  0
  5  4  1  0  0  0  0
  6  5  1  0  0  0  0
  6  1  2  0  0  0  0
  7  6  1  0  0  0  0
  8  7  2  0  0  0  0
  8  9  1  0  0  0  0
  9  5  2  0  0  0  0
 10  7  1  0  0  0  0
 10 36  1  0  0  0  0
 11 37  1  6  0  0  0
 11 12  1  0  0  0  0
 11 10  1  0  0  0  0
 12 13  1  0  0  0  0
 13 38  1  6  0  0  0
 13  8  1  0  0  0  0
 13 19  1  0  0  0  0
 14 28  1  0  0  0  0
 15 14  1  0  0  0  0
 15 40  1  0  0  0  0
 15 16  1  0  0  0  0
 16 18  2  0  0  0  0
 16 12  1  0  0  0  0
 17 41  1  0  0  0  0
 17 14  1  0  0  0  0
 17 42  1  0  0  0  0
 19 20  2  0  0  0  0
 19 24  1  0  0  0  0
 20 21  1  0  0  0  0
 21 22  2  0  0  0  0
 21 25  1  0  0  0  0
 22 27  1  0  0  0  0
 23 45  1  0  0  0  0
 23 22  1  0  0  0  0
 24 23  2  0  0  0  0
 26 27  1  0  0  0  0
 26 47  1  0  0  0  0
 28 29  2  0  0  0  0
 28 11  1  0  0  0  0
 30  1  1  0  0  0  0
 35 10  1  0  0  0  0
 39 15  1  0  0  0  0
 43 17  1  0  0  0  0
 44 20  1  0  0  0  0
 46 24  1  0  0  0  0
 48 26  1  0  0  0  0
M  END
>  <Pose>
1

>  <Score>
-2.83

$$$$
