
 OpenBabel10152117013D

 48 49  0  0  1  0  0  0  0  0999 V2000
   40.2420   64.2060   17.2800 C   0  0  0  0  0  0  0  0  0  0  0  0
   41.0920   64.1040   18.3690 C   0  0  0  0  0  0  0  0  0  0  0  0
   41.0650   63.0490   19.3200 C   0  0  0  0  0  0  0  0  0  0  0  0
   40.1170   62.0100   19.1860 C   0  0  0  0  0  0  0  0  0  0  0  0
   39.2640   62.1070   18.0990 C   0  0  0  0  0  0  0  0  0  0  0  0
   39.3110   63.1580   17.1720 C   0  0  0  0  0  0  0  0  0  0  0  0
   38.2530   62.8970   16.1860 C   0  0  0  0  0  0  0  0  0  0  0  0
   37.6730   61.7400   16.5930 C   0  0  0  0  0  0  0  0  0  0  0  0
   38.2510   61.2820   17.6890 N   0  0  0  0  0  0  0  0  0  0  0  0
   37.8450   63.6900   14.9760 C   0  0  0  0  0  0  0  0  0  0  0  0
   37.1530   62.7890   13.9440 C   0  0  1  0  0  0  0  0  0  0  0  0
   36.3390   61.7060   14.5050 N   0  0  0  0  0  0  0  0  0  0  0  0
   36.5480   61.1570   15.8340 C   0  0  2  0  0  0  0  0  0  0  0  0
   35.6500   62.8850   12.0270 N   0  0  0  0  0  0  0  0  0  0  0  0
   35.0670   61.6090   12.4420 C   0  0  0  0  0  0  0  0  0  0  0  0
   35.3490   61.1250   13.7930 C   0  0  0  0  0  0  0  0  0  0  0  0
   35.1600   63.5530   10.8350 C   0  0  0  0  0  0  0  0  0  0  0  0
   34.6660   60.2210   14.2040 O   0  0  0  0  0  0  0  0  0  0  0  0
   35.3180   61.3190   16.7930 C   0  0  0  0  0  0  0  0  0  0  0  0
   34.8250   60.2530   17.5280 C   0  0  0  0  0  0  0  0  0  0  0  0
   33.7260   60.4640   18.3640 C   0  0  0  0  0  0  0  0  0  0  0  0
   33.1300   61.6800   18.4720 C   0  0  0  0  0  0  0  0  0  0  0  0
   33.5780   62.7720   17.7640 C   0  0  0  0  0  0  0  0  0  0  0  0
   34.6630   62.5740   16.9390 C   0  0  0  0  0  0  0  0  0  0  0  0
   33.1160   59.5230   19.1560 O   0  0  0  0  0  0  0  0  0  0  0  0
   32.2740   60.3800   19.9820 C   0  0  0  0  0  0  0  0  0  0  0  0
   32.0820   61.6380   19.3440 O   0  0  0  0  0  0  0  0  0  0  0  0
   36.6340   63.4550   12.7100 C   0  0  0  0  0  0  0  0  0  0  0  0
   37.1760   64.5320   12.4080 O   0  0  0  0  0  0  0  0  0  0  0  0
   40.2880   64.9860   16.6050 H   0  0  0  0  0  0  0  0  0  0  0  0
   41.7960   64.8470   18.4980 H   0  0  0  0  0  0  0  0  0  0  0  0
   41.7430   64.8930   18.5030 H   0  0  0  0  0  0  0  0  0  0  0  0
   41.7350   63.0420   20.1060 H   0  0  0  0  0  0  0  0  0  0  0  0
   40.0630   61.2270   19.8560 H   0  0  0  0  0  0  0  0  0  0  0  0
   38.7150   64.1280   14.5340 H   0  0  0  0  0  0  0  0  0  0  0  0
   37.1590   64.4530   15.2810 H   0  0  0  0  0  0  0  0  0  0  0  0
   37.9790   62.2520   13.5250 H   0  0  0  0  0  0  0  0  0  0  0  0
   36.7420   60.1340   15.5880 H   0  0  0  0  0  0  0  0  0  0  0  0
   35.4180   60.8640   11.7590 H   0  0  0  0  0  0  0  0  0  0  0  0
   34.0120   61.7870   12.4400 H   0  0  0  0  0  0  0  0  0  0  0  0
   35.7000   64.4650   10.6900 H   0  0  0  0  0  0  0  0  0  0  0  0
   34.1190   63.7700   10.9500 H   0  0  0  0  0  0  0  0  0  0  0  0
   35.3010   62.9170    9.9860 H   0  0  0  0  0  0  0  0  0  0  0  0
   35.2610   59.3210   17.4580 H   0  0  0  0  0  0  0  0  0  0  0  0
   33.1220   63.6950   17.8470 H   0  0  0  0  0  0  0  0  0  0  0  0
   35.0190   63.3770   16.3980 H   0  0  0  0  0  0  0  0  0  0  0  0
   31.8750   60.1130   20.8960 H   0  0  0  0  0  0  0  0  0  0  0  0
   33.0650   59.9380   20.4750 H   0  0  0  0  0  0  0  0  0  0  0  0
  2 32  1  0  0  0  0
  3 33  1  0  0  0  0
  4  3  2  0  0  0  0
  4 34  1  0  0  0  0
  5  4  1  0  0  0  0
  6  1  1  0  0  0  0
  6  5  2  0  0  0  0
  7  8  2  0  0  0  0
  7  6  1  0  0  0  0
  8  9  1  0  0  0  0
  9  5  1  0  0  0  0
 10 36  1  0  0  0  0
 10  7  1  0  0  0  0
 11 37  1  6  0  0  0
 11 12  1  0  0  0  0
 11 10  1  0  0  0  0
 12 13  1  0  0  0  0
 13 38  1  6  0  0  0
 13  8  1  0  0  0  0
 13 19  1  0  0  0  0
 14 15  1  0  0  0  0
 14 28  1  0  0  0  0
 15 16  1  0  0  0  0
 16 18  2  0  0  0  0
 16 12  1  0  0  0  0
 17 42  1  0  0  0  0
 17 14  1  0  0  0  0
 19 24  2  0  0  0  0
 19 20  1  0  0  0  0
 20 21  2  0  0  0  0
 21 22  1  0  0  0  0
 21 25  1  0  0  0  0
 22 27  1  0  0  0  0
 23 45  1  0  0  0  0
 23 22  2  0  0  0  0
 24 23  1  0  0  0  0
 26 48  1  0  0  0  0
 26 47  1  0  0  0  0
 27 26  1  0  0  0  0
 28 11  1  0  0  0  0
 29 28  2  0  0  0  0
 30  1  1  0  0  0  0
 35 10  1  0  0  0  0
 39 15  1  0  0  0  0
 40 15  1  0  0  0  0
 41 17  1  0  0  0  0
 43 17  1  0  0  0  0
 44 20  1  0  0  0  0
 46 24  1  0  0  0  0
M  END
>  <Pose>
1

>  <Score>
-4.19

$$$$

 OpenBabel10152117013D

 48 49  0  0  1  0  0  0  0  0999 V2000
   39.6640   64.1900   17.8790 C   0  0  0  0  0  0  0  0  0  0  0  0
   40.6880   63.9160   18.7700 C   0  0  0  0  0  0  0  0  0  0  0  0
   40.9230   62.6490   19.3690 C   0  0  0  0  0  0  0  0  0  0  0  0
   40.0710   61.5630   19.0640 C   0  0  0  0  0  0  0  0  0  0  0  0
   39.0460   61.8310   18.1730 C   0  0  0  0  0  0  0  0  0  0  0  0
   38.8350   63.0910   17.5940 C   0  0  0  0  0  0  0  0  0  0  0  0
   37.6590   62.9610   16.7210 C   0  0  0  0  0  0  0  0  0  0  0  0
   37.2720   61.6670   16.8460 C   0  0  0  0  0  0  0  0  0  0  0  0
   38.0650   61.0150   17.6770 N   0  0  0  0  0  0  0  0  0  0  0  0
   36.9810   63.9880   15.8580 C   0  0  0  0  0  0  0  0  0  0  0  0
   36.2210   63.3140   14.7080 C   0  0  1  0  0  0  0  0  0  0  0  0
   35.6200   62.0150   15.0320 N   0  0  0  0  0  0  0  0  0  0  0  0
   36.0990   61.1600   16.1050 C   0  0  2  0  0  0  0  0  0  0  0  0
   34.4190   63.7150   13.1150 N   0  0  0  0  0  0  0  0  0  0  0  0
   34.0410   62.3050   13.2140 C   0  0  0  0  0  0  0  0  0  0  0  0
   34.5890   61.5160   14.3180 C   0  0  0  0  0  0  0  0  0  0  0  0
   33.6760   64.6060   12.2430 C   0  0  0  0  0  0  0  0  0  0  0  0
   34.0750   60.4480   14.5330 O   0  0  0  0  0  0  0  0  0  0  0  0
   35.0340   60.8800   17.2220 C   0  0  0  0  0  0  0  0  0  0  0  0
   33.9570   61.7280   17.4260 C   0  0  0  0  0  0  0  0  0  0  0  0
   33.0430   61.4220   18.4370 C   0  0  0  0  0  0  0  0  0  0  0  0
   33.1850   60.3230   19.2230 C   0  0  0  0  0  0  0  0  0  0  0  0
   34.2370   59.4490   19.0650 C   0  0  0  0  0  0  0  0  0  0  0  0
   35.1410   59.7410   18.0680 C   0  0  0  0  0  0  0  0  0  0  0  0
   31.9290   62.1500   18.7710 O   0  0  0  0  0  0  0  0  0  0  0  0
   31.2490   61.2030   19.6490 C   0  0  0  0  0  0  0  0  0  0  0  0
   32.1750   60.2380   20.1360 O   0  0  0  0  0  0  0  0  0  0  0  0
   35.4420   64.2110   13.7990 C   0  0  0  0  0  0  0  0  0  0  0  0
   35.8180   65.3940   13.7560 O   0  0  0  0  0  0  0  0  0  0  0  0
   39.5210   65.1220   17.4600 H   0  0  0  0  0  0  0  0  0  0  0  0
   41.3280   64.6880   19.0160 H   0  0  0  0  0  0  0  0  0  0  0  0
   41.2720   64.7230   19.0420 H   0  0  0  0  0  0  0  0  0  0  0  0
   41.7100   62.5230   20.0240 H   0  0  0  0  0  0  0  0  0  0  0  0
   40.2060   60.6280   19.4790 H   0  0  0  0  0  0  0  0  0  0  0  0
   37.7190   64.6470   15.4520 H   0  0  0  0  0  0  0  0  0  0  0  0
   36.2830   64.5340   16.4580 H   0  0  0  0  0  0  0  0  0  0  0  0
   37.0140   63.0330   14.0470 H   0  0  0  0  0  0  0  0  0  0  0  0
   36.3500   60.2810   15.5490 H   0  0  0  0  0  0  0  0  0  0  0  0
   34.3450   61.8310   12.3040 H   0  0  0  0  0  0  0  0  0  0  0  0
   32.9880   62.3270   13.4010 H   0  0  0  0  0  0  0  0  0  0  0  0
   34.0930   65.5900   12.3010 H   0  0  0  0  0  0  0  0  0  0  0  0
   32.6520   64.6340   12.5510 H   0  0  0  0  0  0  0  0  0  0  0  0
   33.7360   64.2520   11.2360 H   0  0  0  0  0  0  0  0  0  0  0  0
   33.8320   62.5690   16.8410 H   0  0  0  0  0  0  0  0  0  0  0  0
   34.3430   58.6160   19.6650 H   0  0  0  0  0  0  0  0  0  0  0  0
   35.9380   59.1010   17.9270 H   0  0  0  0  0  0  0  0  0  0  0  0
   30.2450   61.2300   19.8820 H   0  0  0  0  0  0  0  0  0  0  0  0
   30.7900   61.3630   18.7380 H   0  0  0  0  0  0  0  0  0  0  0  0
  2 31  1  0  0  0  0
  3 33  1  0  0  0  0
  4  3  2  0  0  0  0
  4 34  1  0  0  0  0
  5  4  1  0  0  0  0
  6  1  1  0  0  0  0
  6  5  2  0  0  0  0
  7  8  2  0  0  0  0
  7  6  1  0  0  0  0
  8  9  1  0  0  0  0
  9  5  1  0  0  0  0
 10 36  1  0  0  0  0
 10  7  1  0  0  0  0
 11 37  1  6  0  0  0
 11 12  1  0  0  0  0
 11 10  1  0  0  0  0
 12 13  1  0  0  0  0
 13 38  1  6  0  0  0
 13  8  1  0  0  0  0
 13 19  1  0  0  0  0
 14 15  1  0  0  0  0
 14 28  1  0  0  0  0
 15 40  1  0  0  0  0
 15 16  1  0  0  0  0
 16 18  2  0  0  0  0
 16 12  1  0  0  0  0
 17 41  1  0  0  0  0
 17 42  1  0  0  0  0
 17 14  1  0  0  0  0
 19 20  2  0  0  0  0
 19 24  1  0  0  0  0
 20 21  1  0  0  0  0
 21 25  1  0  0  0  0
 21 22  2  0  0  0  0
 22 27  1  0  0  0  0
 23 22  1  0  0  0  0
 23 45  1  0  0  0  0
 24 23  2  0  0  0  0
 26 47  1  0  0  0  0
 26 27  1  0  0  0  0
 28 11  1  0  0  0  0
 29 28  2  0  0  0  0
 30  1  1  0  0  0  0
 35 10  1  0  0  0  0
 39 15  1  0  0  0  0
 43 17  1  0  0  0  0
 44 20  1  0  0  0  0
 46 24  1  0  0  0  0
 48 26  1  0  0  0  0
M  END
>  <Pose>
3

>  <Score>
-4.05

$$$$

 OpenBabel10152117013D

 48 49  0  0  1  0  0  0  0  0999 V2000
   39.7120   59.9910   18.1010 C   0  0  0  0  0  0  0  0  0  0  0  0
   40.7570   59.8370   18.9970 C   0  0  0  0  0  0  0  0  0  0  0  0
   41.2750   60.8710   19.8230 C   0  0  0  0  0  0  0  0  0  0  0  0
   40.7140   62.1660   19.7560 C   0  0  0  0  0  0  0  0  0  0  0  0
   39.6680   62.3260   18.8630 C   0  0  0  0  0  0  0  0  0  0  0  0
   39.1740   61.2890   18.0580 C   0  0  0  0  0  0  0  0  0  0  0  0
   38.0810   61.8610   17.2580 C   0  0  0  0  0  0  0  0  0  0  0  0
   38.0120   63.1620   17.6400 C   0  0  0  0  0  0  0  0  0  0  0  0
   38.9190   63.4320   18.5610 N   0  0  0  0  0  0  0  0  0  0  0  0
   37.1980   61.2140   16.2290 C   0  0  0  0  0  0  0  0  0  0  0  0
   35.8660   61.9660   16.1050 C   0  0  1  0  0  0  0  0  0  0  0  0
   35.9490   63.4190   16.2910 N   0  0  0  0  0  0  0  0  0  0  0  0
   37.0130   64.0680   17.0380 C   0  0  2  0  0  0  0  0  0  0  0  0
   33.9950   62.3000   14.5780 N   0  0  0  0  0  0  0  0  0  0  0  0
   33.8920   63.6860   15.0350 C   0  0  0  0  0  0  0  0  0  0  0  0
   35.0060   64.2500   15.7970 C   0  0  0  0  0  0  0  0  0  0  0  0
   33.0790   61.7970   13.5710 C   0  0  0  0  0  0  0  0  0  0  0  0
   35.0200   65.4460   15.9400 O   0  0  0  0  0  0  0  0  0  0  0  0
   37.8720   65.0680   16.1870 C   0  0  0  0  0  0  0  0  0  0  0  0
   38.3470   66.2540   16.7220 C   0  0  0  0  0  0  0  0  0  0  0  0
   39.1070   67.1010   15.9120 C   0  0  0  0  0  0  0  0  0  0  0  0
   39.3870   66.7940   14.6180 C   0  0  0  0  0  0  0  0  0  0  0  0
   38.9380   65.6300   14.0350 C   0  0  0  0  0  0  0  0  0  0  0  0
   38.1910   64.7880   14.8290 C   0  0  0  0  0  0  0  0  0  0  0  0
   39.6500   68.3060   16.2810 O   0  0  0  0  0  0  0  0  0  0  0  0
   40.5440   68.5480   15.1540 C   0  0  0  0  0  0  0  0  0  0  0  0
   40.1380   67.7710   14.0330 O   0  0  0  0  0  0  0  0  0  0  0  0
   34.9070   61.4710   15.0700 C   0  0  0  0  0  0  0  0  0  0  0  0
   35.0440   60.2840   14.7300 O   0  0  0  0  0  0  0  0  0  0  0  0
   39.3580   59.2190   17.5150 H   0  0  0  0  0  0  0  0  0  0  0  0
   41.1920   58.9040   19.0690 H   0  0  0  0  0  0  0  0  0  0  0  0
   41.2090   58.9090   19.0010 H   0  0  0  0  0  0  0  0  0  0  0  0
   42.0570   60.6770   20.4680 H   0  0  0  0  0  0  0  0  0  0  0  0
   41.0620   62.9450   20.3370 H   0  0  0  0  0  0  0  0  0  0  0  0
   37.0040   60.2030   16.5190 H   0  0  0  0  0  0  0  0  0  0  0  0
   37.6970   61.2410   15.2830 H   0  0  0  0  0  0  0  0  0  0  0  0
   35.3500   61.6580   16.9900 H   0  0  0  0  0  0  0  0  0  0  0  0
   36.4400   64.5630   17.7940 H   0  0  0  0  0  0  0  0  0  0  0  0
   33.0200   63.7520   15.6510 H   0  0  0  0  0  0  0  0  0  0  0  0
   33.8720   64.2610   14.1320 H   0  0  0  0  0  0  0  0  0  0  0  0
   33.3040   60.7720   13.3640 H   0  0  0  0  0  0  0  0  0  0  0  0
   33.1830   62.3730   12.6750 H   0  0  0  0  0  0  0  0  0  0  0  0
   32.0750   61.8760   13.9310 H   0  0  0  0  0  0  0  0  0  0  0  0
   38.1440   66.5070   17.7020 H   0  0  0  0  0  0  0  0  0  0  0  0
   39.1510   65.4000   13.0520 H   0  0  0  0  0  0  0  0  0  0  0  0
   37.8440   63.9070   14.4160 H   0  0  0  0  0  0  0  0  0  0  0  0
   41.3520   69.1900   15.1670 H   0  0  0  0  0  0  0  0  0  0  0  0
   41.0150   68.3300   16.0460 H   0  0  0  0  0  0  0  0  0  0  0  0
  2 31  1  0  0  0  0
  3 33  1  0  0  0  0
  4  3  2  0  0  0  0
  4 34  1  0  0  0  0
  5  4  1  0  0  0  0
  6  1  1  0  0  0  0
  6  5  2  0  0  0  0
  7  8  2  0  0  0  0
  7  6  1  0  0  0  0
  8  9  1  0  0  0  0
  9  5  1  0  0  0  0
 10 35  1  0  0  0  0
 10  7  1  0  0  0  0
 11 10  1  0  0  0  0
 11 12  1  0  0  0  0
 11 37  1  1  0  0  0
 12 13  1  0  0  0  0
 13  8  1  0  0  0  0
 13 38  1  1  0  0  0
 14 15  1  0  0  0  0
 14 28  1  0  0  0  0
 15 39  1  0  0  0  0
 15 16  1  0  0  0  0
 16 18  2  0  0  0  0
 16 12  1  0  0  0  0
 17 43  1  0  0  0  0
 17 14  1  0  0  0  0
 19 20  1  0  0  0  0
 19 13  1  0  0  0  0
 20 44  1  0  0  0  0
 21 25  1  0  0  0  0
 21 20  2  0  0  0  0
 22 21  1  0  0  0  0
 23 22  2  0  0  0  0
 23 24  1  0  0  0  0
 24 19  2  0  0  0  0
 26 47  1  0  0  0  0
 26 48  1  0  0  0  0
 27 22  1  0  0  0  0
 27 26  1  0  0  0  0
 28 11  1  0  0  0  0
 29 28  2  0  0  0  0
 30  1  1  0  0  0  0
 36 10  1  0  0  0  0
 40 15  1  0  0  0  0
 41 17  1  0  0  0  0
 42 17  1  0  0  0  0
 45 23  1  0  0  0  0
 46 24  1  0  0  0  0
M  END
>  <Pose>
1

>  <Score>
-3.67

$$$$
