
 OpenBabel10152117013D

 48 49  0  0  1  0  0  0  0  0999 V2000
   37.8240   32.1900   35.3720 C   0  0  0  0  0  0  0  0  0  0  0  0
   37.8680   32.5920   36.6970 C   0  0  0  0  0  0  0  0  0  0  0  0
   38.5590   31.9020   37.7290 C   0  0  0  0  0  0  0  0  0  0  0  0
   39.2640   30.7140   37.4270 C   0  0  0  0  0  0  0  0  0  0  0  0
   39.2230   30.3080   36.1040 C   0  0  0  0  0  0  0  0  0  0  0  0
   38.5350   31.0070   35.1020 C   0  0  0  0  0  0  0  0  0  0  0  0
   38.7320   30.2570   33.8530 C   0  0  0  0  0  0  0  0  0  0  0  0
   39.5040   29.1970   34.2010 C   0  0  0  0  0  0  0  0  0  0  0  0
   39.7890   29.2230   35.4900 N   0  0  0  0  0  0  0  0  0  0  0  0
   38.2230   30.5380   32.4680 C   0  0  0  0  0  0  0  0  0  0  0  0
   39.1270   29.8860   31.4140 C   0  0  1  0  0  0  0  0  0  0  0  0
   39.7180   28.6020   31.8050 N   0  0  0  0  0  0  0  0  0  0  0  0
   39.9130   28.2020   33.1880 C   0  0  2  0  0  0  0  0  0  0  0  0
   39.1250   29.1420   29.0920 N   0  0  0  0  0  0  0  0  0  0  0  0
   40.0020   28.0320   29.4650 C   0  0  0  0  0  0  0  0  0  0  0  0
   40.1530   27.7140   30.8850 C   0  0  0  0  0  0  0  0  0  0  0  0
   38.7010   29.3000   27.7130 C   0  0  0  0  0  0  0  0  0  0  0  0
   40.6610   26.6560   31.1570 O   0  0  0  0  0  0  0  0  0  0  0  0
   39.1320   26.9040   33.5940 C   0  0  0  0  0  0  0  0  0  0  0  0
   37.7510   26.8310   33.5080 C   0  0  0  0  0  0  0  0  0  0  0  0
   37.1150   25.6460   33.8840 C   0  0  0  0  0  0  0  0  0  0  0  0
   37.8130   24.5690   34.3320 C   0  0  0  0  0  0  0  0  0  0  0  0
   39.1850   24.5870   34.4380 C   0  0  0  0  0  0  0  0  0  0  0  0
   39.8210   25.7520   34.0670 C   0  0  0  0  0  0  0  0  0  0  0  0
   35.7640   25.4060   33.8620 O   0  0  0  0  0  0  0  0  0  0  0  0
   35.7490   23.9620   34.0600 C   0  0  0  0  0  0  0  0  0  0  0  0
   36.9780   23.5350   34.6380 O   0  0  0  0  0  0  0  0  0  0  0  0
   38.7070   30.0290   29.9850 C   0  0  0  0  0  0  0  0  0  0  0  0
   37.9690   30.9950   29.7330 O   0  0  0  0  0  0  0  0  0  0  0  0
   37.3130   32.7150   34.6440 H   0  0  0  0  0  0  0  0  0  0  0  0
   37.3630   33.4540   36.9530 H   0  0  0  0  0  0  0  0  0  0  0  0
   37.3030   33.4230   36.9310 H   0  0  0  0  0  0  0  0  0  0  0  0
   38.5470   32.2660   38.6950 H   0  0  0  0  0  0  0  0  0  0  0  0
   39.7760   30.1830   38.1480 H   0  0  0  0  0  0  0  0  0  0  0  0
   38.2050   31.5960   32.3090 H   0  0  0  0  0  0  0  0  0  0  0  0
   37.2380   30.1320   32.3750 H   0  0  0  0  0  0  0  0  0  0  0  0
   39.9790   30.5330   31.4160 H   0  0  0  0  0  0  0  0  0  0  0  0
   40.9740   28.0610   33.1980 H   0  0  0  0  0  0  0  0  0  0  0  0
   40.9770   28.2570   29.0850 H   0  0  0  0  0  0  0  0  0  0  0  0
   39.5260   27.1680   29.0500 H   0  0  0  0  0  0  0  0  0  0  0  0
   38.0680   30.1590   27.6310 H   0  0  0  0  0  0  0  0  0  0  0  0
   38.1610   28.4290   27.4040 H   0  0  0  0  0  0  0  0  0  0  0  0
   39.5600   29.4280   27.0880 H   0  0  0  0  0  0  0  0  0  0  0  0
   37.2030   27.6380   33.1730 H   0  0  0  0  0  0  0  0  0  0  0  0
   39.7130   23.7690   34.7800 H   0  0  0  0  0  0  0  0  0  0  0  0
   40.8500   25.7910   34.1350 H   0  0  0  0  0  0  0  0  0  0  0  0
   34.9620   23.3400   33.8170 H   0  0  0  0  0  0  0  0  0  0  0  0
   35.4700   24.2770   33.1180 H   0  0  0  0  0  0  0  0  0  0  0  0
  2 31  1  0  0  0  0
  3 33  1  0  0  0  0
  4  3  2  0  0  0  0
  4 34  1  0  0  0  0
  5  4  1  0  0  0  0
  6  1  1  0  0  0  0
  6  5  2  0  0  0  0
  7  8  2  0  0  0  0
  7  6  1  0  0  0  0
  8  9  1  0  0  0  0
  9  5  1  0  0  0  0
 10  7  1  0  0  0  0
 11 37  1  1  0  0  0
 11 12  1  0  0  0  0
 11 10  1  0  0  0  0
 12 13  1  0  0  0  0
 13 38  1  1  0  0  0
 13 19  1  0  0  0  0
 13  8  1  0  0  0  0
 14 15  1  0  0  0  0
 14 28  1  0  0  0  0
 15 16  1  0  0  0  0
 16 18  2  0  0  0  0
 16 12  1  0  0  0  0
 17 14  1  0  0  0  0
 19 24  1  0  0  0  0
 20 19  2  0  0  0  0
 20 21  1  0  0  0  0
 21 22  2  0  0  0  0
 22 23  1  0  0  0  0
 22 27  1  0  0  0  0
 23 45  1  0  0  0  0
 24 46  1  0  0  0  0
 24 23  2  0  0  0  0
 25 21  1  0  0  0  0
 26 27  1  0  0  0  0
 28 11  1  0  0  0  0
 29 28  2  0  0  0  0
 30  1  1  0  0  0  0
 35 10  1  0  0  0  0
 36 10  1  0  0  0  0
 39 15  1  0  0  0  0
 40 15  1  0  0  0  0
 41 17  1  0  0  0  0
 42 17  1  0  0  0  0
 43 17  1  0  0  0  0
 44 20  1  0  0  0  0
 47 26  1  0  0  0  0
 48 26  1  0  0  0  0
M  END
>  <Pose>
1

>  <Score>
-1.77

$$$$

 OpenBabel10152117013D

 48 49  0  0  1  0  0  0  0  0999 V2000
   37.7340   33.1910   35.5080 C   0  0  0  0  0  0  0  0  0  0  0  0
   37.7780   33.7490   36.7760 C   0  0  0  0  0  0  0  0  0  0  0  0
   38.3330   33.1150   37.9200 C   0  0  0  0  0  0  0  0  0  0  0  0
   38.8870   31.8200   37.8030 C   0  0  0  0  0  0  0  0  0  0  0  0
   38.8460   31.2580   36.5390 C   0  0  0  0  0  0  0  0  0  0  0  0
   38.2940   31.9040   35.4230 C   0  0  0  0  0  0  0  0  0  0  0  0
   38.4400   30.9820   34.2870 C   0  0  0  0  0  0  0  0  0  0  0  0
   39.0530   29.8870   34.8030 C   0  0  0  0  0  0  0  0  0  0  0  0
   39.2890   30.0420   36.0930 N   0  0  0  0  0  0  0  0  0  0  0  0
   38.0260   31.1470   32.8520 C   0  0  0  0  0  0  0  0  0  0  0  0
   38.8770   30.2580   31.9360 C   0  0  1  0  0  0  0  0  0  0  0  0
   39.2800   28.9710   32.5110 N   0  0  0  0  0  0  0  0  0  0  0  0
   39.3680   28.7290   33.9410 C   0  0  2  0  0  0  0  0  0  0  0  0
   38.8680   29.2310   29.7240 N   0  0  0  0  0  0  0  0  0  0  0  0
   39.5780   28.0770   30.2760 C   0  0  0  0  0  0  0  0  0  0  0  0
   39.6310   27.9260   31.7300 C   0  0  0  0  0  0  0  0  0  0  0  0
   38.5220   29.2640   28.3150 C   0  0  0  0  0  0  0  0  0  0  0  0
   39.9860   26.8570   32.1560 O   0  0  0  0  0  0  0  0  0  0  0  0
   38.4090   27.6000   34.4580 C   0  0  0  0  0  0  0  0  0  0  0  0
   37.3730   27.1150   33.6760 C   0  0  0  0  0  0  0  0  0  0  0  0
   36.5540   26.1080   34.1940 C   0  0  0  0  0  0  0  0  0  0  0  0
   36.7470   25.5980   35.4390 C   0  0  0  0  0  0  0  0  0  0  0  0
   37.7590   26.0440   36.2570 C   0  0  0  0  0  0  0  0  0  0  0  0
   38.5730   27.0350   35.7530 C   0  0  0  0  0  0  0  0  0  0  0  0
   35.4900   25.5190   33.5580 O   0  0  0  0  0  0  0  0  0  0  0  0
   35.2480   24.3860   34.4430 C   0  0  0  0  0  0  0  0  0  0  0  0
   35.8250   24.6320   35.7210 O   0  0  0  0  0  0  0  0  0  0  0  0
   38.5350   30.2700   30.4800 C   0  0  0  0  0  0  0  0  0  0  0  0
   37.9400   31.2810   30.0730 O   0  0  0  0  0  0  0  0  0  0  0  0
   37.3240   33.6780   34.6960 H   0  0  0  0  0  0  0  0  0  0  0  0
   37.3800   34.6930   36.8970 H   0  0  0  0  0  0  0  0  0  0  0  0
   37.3180   34.6670   36.8760 H   0  0  0  0  0  0  0  0  0  0  0  0
   38.3300   33.5980   38.8320 H   0  0  0  0  0  0  0  0  0  0  0  0
   39.2980   31.3250   38.6100 H   0  0  0  0  0  0  0  0  0  0  0  0
   38.1520   32.1700   32.5650 H   0  0  0  0  0  0  0  0  0  0  0  0
   37.0000   30.8570   32.7550 H   0  0  0  0  0  0  0  0  0  0  0  0
   39.8060   30.7890   31.9060 H   0  0  0  0  0  0  0  0  0  0  0  0
   40.4000   28.4590   34.0260 H   0  0  0  0  0  0  0  0  0  0  0  0
   40.5880   28.1290   29.9260 H   0  0  0  0  0  0  0  0  0  0  0  0
   39.0100   27.2340   29.9430 H   0  0  0  0  0  0  0  0  0  0  0  0
   38.0110   30.1780   28.0950 H   0  0  0  0  0  0  0  0  0  0  0  0
   37.8860   28.4350   28.0850 H   0  0  0  0  0  0  0  0  0  0  0  0
   39.4140   29.2040   27.7270 H   0  0  0  0  0  0  0  0  0  0  0  0
   37.2080   27.4900   32.7290 H   0  0  0  0  0  0  0  0  0  0  0  0
   37.9010   25.6560   37.2030 H   0  0  0  0  0  0  0  0  0  0  0  0
   39.3410   27.3860   36.3460 H   0  0  0  0  0  0  0  0  0  0  0  0
   34.7340   23.5300   34.1810 H   0  0  0  0  0  0  0  0  0  0  0  0
   35.6330   24.1430   33.5170 H   0  0  0  0  0  0  0  0  0  0  0  0
  2 31  1  0  0  0  0
  3 33  1  0  0  0  0
  4  3  2  0  0  0  0
  4 34  1  0  0  0  0
  5  4  1  0  0  0  0
  6  1  1  0  0  0  0
  6  5  2  0  0  0  0
  7  8  2  0  0  0  0
  7  6  1  0  0  0  0
  8  9  1  0  0  0  0
  9  5  1  0  0  0  0
 10  7  1  0  0  0  0
 11 37  1  1  0  0  0
 11 12  1  0  0  0  0
 11 10  1  0  0  0  0
 12 13  1  0  0  0  0
 13 38  1  1  0  0  0
 13 19  1  0  0  0  0
 13  8  1  0  0  0  0
 14 15  1  0  0  0  0
 14 28  1  0  0  0  0
 15 16  1  0  0  0  0
 16 18  2  0  0  0  0
 16 12  1  0  0  0  0
 17 14  1  0  0  0  0
 19 24  1  0  0  0  0
 20 21  1  0  0  0  0
 20 19  2  0  0  0  0
 21 22  2  0  0  0  0
 22 27  1  0  0  0  0
 22 23  1  0  0  0  0
 23 45  1  0  0  0  0
 24 23  2  0  0  0  0
 24 46  1  0  0  0  0
 25 21  1  0  0  0  0
 26 27  1  0  0  0  0
 28 11  1  0  0  0  0
 29 28  2  0  0  0  0
 30  1  1  0  0  0  0
 35 10  1  0  0  0  0
 36 10  1  0  0  0  0
 39 15  1  0  0  0  0
 40 15  1  0  0  0  0
 41 17  1  0  0  0  0
 42 17  1  0  0  0  0
 43 17  1  0  0  0  0
 44 20  1  0  0  0  0
 47 26  1  0  0  0  0
 48 26  1  0  0  0  0
M  END
>  <Pose>
1

>  <Score>
-1.45

$$$$

 OpenBabel10152117013D

 48 49  0  0  1  0  0  0  0  0999 V2000
   37.4760   32.9760   36.0700 C   0  0  0  0  0  0  0  0  0  0  0  0
   37.7270   33.3380   37.3830 C   0  0  0  0  0  0  0  0  0  0  0  0
   38.6550   32.6860   38.2390 C   0  0  0  0  0  0  0  0  0  0  0  0
   39.3960   31.5830   37.7580 C   0  0  0  0  0  0  0  0  0  0  0  0
   39.1500   31.2170   36.4460 C   0  0  0  0  0  0  0  0  0  0  0  0
   38.2280   31.8770   35.6190 C   0  0  0  0  0  0  0  0  0  0  0  0
   38.2600   31.1890   34.3200 C   0  0  0  0  0  0  0  0  0  0  0  0
   39.1750   30.1980   34.4710 C   0  0  0  0  0  0  0  0  0  0  0  0
   39.6880   30.2120   35.6880 N   0  0  0  0  0  0  0  0  0  0  0  0
   37.4820   31.4630   33.0640 C   0  0  0  0  0  0  0  0  0  0  0  0
   38.2310   30.9350   31.8340 C   0  0  1  0  0  0  0  0  0  0  0  0
   38.9970   29.7020   32.0500 N   0  0  0  0  0  0  0  0  0  0  0  0
   39.4780   29.2800   33.3540 C   0  0  2  0  0  0  0  0  0  0  0  0
   37.8700   30.2670   29.5170 N   0  0  0  0  0  0  0  0  0  0  0  0
   38.8960   29.2370   29.6720 C   0  0  0  0  0  0  0  0  0  0  0  0
   39.3330   28.8910   31.0240 C   0  0  0  0  0  0  0  0  0  0  0  0
   37.1860   30.4270   28.2460 C   0  0  0  0  0  0  0  0  0  0  0  0
   39.9760   27.8790   31.1490 O   0  0  0  0  0  0  0  0  0  0  0  0
   38.9050   27.9000   33.8300 C   0  0  0  0  0  0  0  0  0  0  0  0
   37.5910   27.5360   33.5820 C   0  0  0  0  0  0  0  0  0  0  0  0
   37.1410   26.2930   34.0320 C   0  0  0  0  0  0  0  0  0  0  0  0
   37.9550   25.4370   34.7050 C   0  0  0  0  0  0  0  0  0  0  0  0
   39.2670   25.7480   34.9790 C   0  0  0  0  0  0  0  0  0  0  0  0
   39.7190   26.9720   34.5370 C   0  0  0  0  0  0  0  0  0  0  0  0
   35.8790   25.7790   33.8730 O   0  0  0  0  0  0  0  0  0  0  0  0
   36.1070   24.3920   34.2610 C   0  0  0  0  0  0  0  0  0  0  0  0
   37.2930   24.2920   35.0410 O   0  0  0  0  0  0  0  0  0  0  0  0
   37.5450   31.0810   30.5130 C   0  0  0  0  0  0  0  0  0  0  0  0
   36.6890   31.9790   30.4460 O   0  0  0  0  0  0  0  0  0  0  0  0
   36.7960   33.4710   35.4730 H   0  0  0  0  0  0  0  0  0  0  0  0
   37.2020   34.1390   37.7670 H   0  0  0  0  0  0  0  0  0  0  0  0
   37.1420   34.1020   37.7550 H   0  0  0  0  0  0  0  0  0  0  0  0
   38.7880   33.0170   39.2080 H   0  0  0  0  0  0  0  0  0  0  0  0
   40.0780   31.0810   38.3480 H   0  0  0  0  0  0  0  0  0  0  0  0
   37.3400   32.5190   32.9630 H   0  0  0  0  0  0  0  0  0  0  0  0
   36.5370   30.9650   33.1300 H   0  0  0  0  0  0  0  0  0  0  0  0
   39.0080   31.6610   31.7150 H   0  0  0  0  0  0  0  0  0  0  0  0
   40.5310   29.2430   33.1660 H   0  0  0  0  0  0  0  0  0  0  0  0
   39.7610   29.5680   29.1340 H   0  0  0  0  0  0  0  0  0  0  0  0
   38.4320   28.3450   29.3070 H   0  0  0  0  0  0  0  0  0  0  0  0
   36.4750   31.2230   28.3210 H   0  0  0  0  0  0  0  0  0  0  0  0
   36.6800   29.5180   27.9980 H   0  0  0  0  0  0  0  0  0  0  0  0
   37.9010   30.6570   27.4840 H   0  0  0  0  0  0  0  0  0  0  0  0
   36.9560   28.1720   33.0750 H   0  0  0  0  0  0  0  0  0  0  0  0
   39.8820   25.0970   35.4920 H   0  0  0  0  0  0  0  0  0  0  0  0
   40.7010   27.2290   34.7270 H   0  0  0  0  0  0  0  0  0  0  0  0
   35.4970   23.5990   34.0070 H   0  0  0  0  0  0  0  0  0  0  0  0
   35.9180   24.5400   33.2570 H   0  0  0  0  0  0  0  0  0  0  0  0
  2 32  1  0  0  0  0
  3 33  1  0  0  0  0
  4  3  2  0  0  0  0
  4 34  1  0  0  0  0
  5  4  1  0  0  0  0
  6  1  1  0  0  0  0
  6  5  2  0  0  0  0
  7  8  2  0  0  0  0
  7  6  1  0  0  0  0
  8  9  1  0  0  0  0
  9  5  1  0  0  0  0
 10 36  1  0  0  0  0
 10  7  1  0  0  0  0
 11 37  1  6  0  0  0
 11 12  1  0  0  0  0
 11 10  1  0  0  0  0
 12 13  1  0  0  0  0
 13 38  1  6  0  0  0
 13 19  1  0  0  0  0
 13  8  1  0  0  0  0
 14 15  1  0  0  0  0
 14 28  1  0  0  0  0
 15 16  1  0  0  0  0
 16 18  2  0  0  0  0
 16 12  1  0  0  0  0
 17 41  1  0  0  0  0
 17 14  1  0  0  0  0
 19 24  1  0  0  0  0
 20 19  2  0  0  0  0
 20 21  1  0  0  0  0
 21 22  2  0  0  0  0
 22 23  1  0  0  0  0
 22 27  1  0  0  0  0
 23 45  1  0  0  0  0
 24 46  1  0  0  0  0
 24 23  2  0  0  0  0
 25 21  1  0  0  0  0
 26 27  1  0  0  0  0
 28 11  1  0  0  0  0
 29 28  2  0  0  0  0
 30  1  1  0  0  0  0
 35 10  1  0  0  0  0
 39 15  1  0  0  0  0
 40 15  1  0  0  0  0
 42 17  1  0  0  0  0
 43 17  1  0  0  0  0
 44 20  1  0  0  0  0
 47 26  1  0  0  0  0
 48 26  1  0  0  0  0
M  END
>  <Pose>
1

>  <Score>
-1.21

$$$$

 OpenBabel10152117013D

 48 49  0  0  1  0  0  0  0  0999 V2000
   39.5010   31.1890   35.2380 C   0  0  0  0  0  0  0  0  0  0  0  0
   38.9210   31.0720   36.4910 C   0  0  0  0  0  0  0  0  0  0  0  0
   37.6650   30.4610   36.7470 C   0  0  0  0  0  0  0  0  0  0  0  0
   36.9180   29.9210   35.6750 C   0  0  0  0  0  0  0  0  0  0  0  0
   37.4920   30.0350   34.4210 C   0  0  0  0  0  0  0  0  0  0  0  0
   38.7360   30.6430   34.1930 C   0  0  0  0  0  0  0  0  0  0  0  0
   38.9840   30.5650   32.7460 C   0  0  0  0  0  0  0  0  0  0  0  0
   37.8960   29.9310   32.2390 C   0  0  0  0  0  0  0  0  0  0  0  0
   37.0400   29.6250   33.1960 N   0  0  0  0  0  0  0  0  0  0  0  0
   40.1530   31.0550   31.9400 C   0  0  0  0  0  0  0  0  0  0  0  0
   40.2850   30.2600   30.6340 C   0  0  1  0  0  0  0  0  0  0  0  0
   39.0170   29.8350   30.0310 N   0  0  0  0  0  0  0  0  0  0  0  0
   37.7880   29.6720   30.7890 C   0  0  2  0  0  0  0  0  0  0  0  0
   41.2640   30.3960   28.4050 N   0  0  0  0  0  0  0  0  0  0  0  0
   40.1140   29.6650   27.8740 C   0  0  0  0  0  0  0  0  0  0  0  0
   38.9260   29.5340   28.7180 C   0  0  0  0  0  0  0  0  0  0  0  0
   42.3300   30.8180   27.5150 C   0  0  0  0  0  0  0  0  0  0  0  0
   37.9130   29.1630   28.1810 O   0  0  0  0  0  0  0  0  0  0  0  0
   36.6200   30.6080   30.3210 C   0  0  0  0  0  0  0  0  0  0  0  0
   35.3040   30.1780   30.3150 C   0  0  0  0  0  0  0  0  0  0  0  0
   34.3100   31.0600   29.8860 C   0  0  0  0  0  0  0  0  0  0  0  0
   34.6010   32.3230   29.4750 C   0  0  0  0  0  0  0  0  0  0  0  0
   35.8910   32.8010   29.4590 C   0  0  0  0  0  0  0  0  0  0  0  0
   36.8770   31.9370   29.8820 C   0  0  0  0  0  0  0  0  0  0  0  0
   32.9640   30.7980   29.8180 O   0  0  0  0  0  0  0  0  0  0  0  0
   32.4430   32.1430   29.6050 C   0  0  0  0  0  0  0  0  0  0  0  0
   33.4700   32.9910   29.1040 O   0  0  0  0  0  0  0  0  0  0  0  0
   41.3720   30.6810   29.6970 C   0  0  0  0  0  0  0  0  0  0  0  0
   42.3230   31.2910   30.2120 O   0  0  0  0  0  0  0  0  0  0  0  0
   40.4170   31.6390   35.0850 H   0  0  0  0  0  0  0  0  0  0  0  0
   39.4390   31.4570   37.2960 H   0  0  0  0  0  0  0  0  0  0  0  0
   39.4360   31.5210   37.2650 H   0  0  0  0  0  0  0  0  0  0  0  0
   37.2990   30.4100   37.7110 H   0  0  0  0  0  0  0  0  0  0  0  0
   36.0000   29.4710   35.8190 H   0  0  0  0  0  0  0  0  0  0  0  0
   41.0490   30.9380   32.5140 H   0  0  0  0  0  0  0  0  0  0  0  0
   39.9970   32.0860   31.7010 H   0  0  0  0  0  0  0  0  0  0  0  0
   40.6910   29.3310   30.9760 H   0  0  0  0  0  0  0  0  0  0  0  0
   37.5850   28.6380   30.6000 H   0  0  0  0  0  0  0  0  0  0  0  0
   40.4480   28.6750   27.6420 H   0  0  0  0  0  0  0  0  0  0  0  0
   39.7850   30.2550   27.0450 H   0  0  0  0  0  0  0  0  0  0  0  0
   43.0800   31.3350   28.0770 H   0  0  0  0  0  0  0  0  0  0  0  0
   41.9320   31.4710   26.7670 H   0  0  0  0  0  0  0  0  0  0  0  0
   42.7630   29.9600   27.0460 H   0  0  0  0  0  0  0  0  0  0  0  0
   35.0620   29.2230   30.6210 H   0  0  0  0  0  0  0  0  0  0  0  0
   36.1090   33.7590   29.1440 H   0  0  0  0  0  0  0  0  0  0  0  0
   37.8540   32.2720   29.8820 H   0  0  0  0  0  0  0  0  0  0  0  0
   31.4710   32.4370   29.7900 H   0  0  0  0  0  0  0  0  0  0  0  0
   32.2350   31.7350   30.5300 H   0  0  0  0  0  0  0  0  0  0  0  0
  2 31  1  0  0  0  0
  3 33  1  0  0  0  0
  4 34  1  0  0  0  0
  4  3  2  0  0  0  0
  5  4  1  0  0  0  0
  6  5  1  0  0  0  0
  6  1  2  0  0  0  0
  7  6  1  0  0  0  0
  8  7  2  0  0  0  0
  8  9  1  0  0  0  0
  9  5  2  0  0  0  0
 10 35  1  0  0  0  0
 10  7  1  0  0  0  0
 11 37  1  1  0  0  0
 11 10  1  0  0  0  0
 12 11  1  0  0  0  0
 12 13  1  0  0  0  0
 13 38  1  6  0  0  0
 13  8  1  0  0  0  0
 14 28  1  0  0  0  0
 15 14  1  0  0  0  0
 15 16  1  0  0  0  0
 16 12  1  0  0  0  0
 17 41  1  0  0  0  0
 17 14  1  0  0  0  0
 18 16  2  0  0  0  0
 19 13  1  0  0  0  0
 20 19  1  0  0  0  0
 20 44  1  0  0  0  0
 21 20  2  0  0  0  0
 22 21  1  0  0  0  0
 23 22  2  0  0  0  0
 23 24  1  0  0  0  0
 24 19  2  0  0  0  0
 25 21  1  0  0  0  0
 26 47  1  0  0  0  0
 26 48  1  0  0  0  0
 27 22  1  0  0  0  0
 27 26  1  0  0  0  0
 28 29  2  0  0  0  0
 28 11  1  0  0  0  0
 30  1  1  0  0  0  0
 36 10  1  0  0  0  0
 39 15  1  0  0  0  0
 40 15  1  0  0  0  0
 42 17  1  0  0  0  0
 43 17  1  0  0  0  0
 45 23  1  0  0  0  0
 46 24  1  0  0  0  0
M  END
>  <Pose>
1

>  <Score>
-0.74

$$$$

 OpenBabel10152117013D

 48 49  0  0  1  0  0  0  0  0999 V2000
   29.8350   27.1610   36.9870 C   0  0  0  0  0  0  0  0  0  0  0  0
   30.8470   26.9620   37.9110 C   0  0  0  0  0  0  0  0  0  0  0  0
   31.9030   27.8780   38.1640 C   0  0  0  0  0  0  0  0  0  0  0  0
   31.9650   29.0920   37.4430 C   0  0  0  0  0  0  0  0  0  0  0  0
   30.9550   29.2970   36.5180 C   0  0  0  0  0  0  0  0  0  0  0  0
   29.9220   28.3770   36.2860 C   0  0  0  0  0  0  0  0  0  0  0  0
   29.0680   28.9580   35.2400 C   0  0  0  0  0  0  0  0  0  0  0  0
   29.6440   30.1490   34.9400 C   0  0  0  0  0  0  0  0  0  0  0  0
   30.7260   30.3480   35.6710 N   0  0  0  0  0  0  0  0  0  0  0  0
   27.8230   28.4140   34.5980 C   0  0  0  0  0  0  0  0  0  0  0  0
   26.9580   29.5510   34.0400 C   0  0  1  0  0  0  0  0  0  0  0  0
   27.7000   30.6970   33.5040 N   0  0  0  0  0  0  0  0  0  0  0  0
   29.0550   31.0290   33.9100 C   0  0  2  0  0  0  0  0  0  0  0  0
   25.1840   29.9860   32.4240 N   0  0  0  0  0  0  0  0  0  0  0  0
   25.7810   31.2910   32.1450 C   0  0  0  0  0  0  0  0  0  0  0  0
   27.1450   31.5430   32.6100 C   0  0  0  0  0  0  0  0  0  0  0  0
   23.9770   29.5760   31.7290 C   0  0  0  0  0  0  0  0  0  0  0  0
   27.7080   32.5070   32.1560 O   0  0  0  0  0  0  0  0  0  0  0  0
   30.0980   30.9970   32.7390 C   0  0  0  0  0  0  0  0  0  0  0  0
   30.4030   32.1330   32.0070 C   0  0  0  0  0  0  0  0  0  0  0  0
   31.3410   32.0370   30.9770 C   0  0  0  0  0  0  0  0  0  0  0  0
   31.9570   30.8640   30.6750 C   0  0  0  0  0  0  0  0  0  0  0  0
   31.6910   29.7060   31.3680 C   0  0  0  0  0  0  0  0  0  0  0  0
   30.7680   29.7920   32.3880 C   0  0  0  0  0  0  0  0  0  0  0  0
   31.7550   33.0580   30.1580 O   0  0  0  0  0  0  0  0  0  0  0  0
   32.9130   32.4360   29.5260 C   0  0  0  0  0  0  0  0  0  0  0  0
   32.8270   31.0190   29.6350 O   0  0  0  0  0  0  0  0  0  0  0  0
   25.7110   29.1540   33.3140 C   0  0  0  0  0  0  0  0  0  0  0  0
   25.2510   28.0370   33.6010 O   0  0  0  0  0  0  0  0  0  0  0  0
   29.0800   26.4750   36.8260 H   0  0  0  0  0  0  0  0  0  0  0  0
   30.8340   26.0850   38.4540 H   0  0  0  0  0  0  0  0  0  0  0  0
   30.8390   26.0500   38.3930 H   0  0  0  0  0  0  0  0  0  0  0  0
   32.6220   27.6590   38.8720 H   0  0  0  0  0  0  0  0  0  0  0  0
   32.7160   29.7830   37.5960 H   0  0  0  0  0  0  0  0  0  0  0  0
   27.2600   27.8710   35.3290 H   0  0  0  0  0  0  0  0  0  0  0  0
   28.1060   27.7690   33.7920 H   0  0  0  0  0  0  0  0  0  0  0  0
   26.5250   29.9620   34.9280 H   0  0  0  0  0  0  0  0  0  0  0  0
   28.9020   32.0160   34.2940 H   0  0  0  0  0  0  0  0  0  0  0  0
   25.1510   32.0300   32.5950 H   0  0  0  0  0  0  0  0  0  0  0  0
   25.8550   31.3250   31.0780 H   0  0  0  0  0  0  0  0  0  0  0  0
   23.6890   28.6000   32.0600 H   0  0  0  0  0  0  0  0  0  0  0  0
   24.1610   29.5560   30.6760 H   0  0  0  0  0  0  0  0  0  0  0  0
   23.1910   30.2700   31.9410 H   0  0  0  0  0  0  0  0  0  0  0  0
   29.9440   33.0330   32.2190 H   0  0  0  0  0  0  0  0  0  0  0  0
   32.1590   28.8160   31.1360 H   0  0  0  0  0  0  0  0  0  0  0  0
   30.5520   28.9380   32.9250 H   0  0  0  0  0  0  0  0  0  0  0  0
   33.6820   32.9480   29.0670 H   0  0  0  0  0  0  0  0  0  0  0  0
   33.1330   33.1950   30.1900 H   0  0  0  0  0  0  0  0  0  0  0  0
  2 32  1  0  0  0  0
  3 33  1  0  0  0  0
  4 34  1  0  0  0  0
  4  3  2  0  0  0  0
  5  4  1  0  0  0  0
  6  5  1  0  0  0  0
  6  1  2  0  0  0  0
  7  6  1  0  0  0  0
  8  7  2  0  0  0  0
  8  9  1  0  0  0  0
  9  5  2  0  0  0  0
 10  7  1  0  0  0  0
 10 35  1  0  0  0  0
 11 10  1  0  0  0  0
 11 37  1  1  0  0  0
 12 13  1  0  0  0  0
 12 11  1  0  0  0  0
 13 38  1  1  0  0  0
 13  8  1  0  0  0  0
 14 28  1  0  0  0  0
 15 14  1  0  0  0  0
 15 39  1  0  0  0  0
 15 16  1  0  0  0  0
 16 12  1  0  0  0  0
 17 43  1  0  0  0  0
 17 41  1  0  0  0  0
 17 14  1  0  0  0  0
 18 16  2  0  0  0  0
 19 13  1  0  0  0  0
 20 44  1  0  0  0  0
 20 19  2  0  0  0  0
 21 20  1  0  0  0  0
 22 21  2  0  0  0  0
 22 23  1  0  0  0  0
 23 24  2  0  0  0  0
 24 19  1  0  0  0  0
 24 46  1  0  0  0  0
 25 21  1  0  0  0  0
 26 27  1  0  0  0  0
 26 48  1  0  0  0  0
 27 22  1  0  0  0  0
 28 29  2  0  0  0  0
 28 11  1  0  0  0  0
 30  1  1  0  0  0  0
 36 10  1  0  0  0  0
 40 15  1  0  0  0  0
 42 17  1  0  0  0  0
 45 23  1  0  0  0  0
 47 26  1  0  0  0  0
M  END
>  <Pose>
1

>  <Score>
-0.74

$$$$
