
 OpenBabel10152117013D

 48 49  0  0  1  0  0  0  0  0999 V2000
   42.9050   61.6030   31.3630 C   0  0  0  0  0  0  0  0  0  0  0  0
   43.3960   62.8840   31.1690 C   0  0  0  0  0  0  0  0  0  0  0  0
   42.5920   64.0310   30.9300 C   0  0  0  0  0  0  0  0  0  0  0  0
   41.1850   63.9000   30.8750 C   0  0  0  0  0  0  0  0  0  0  0  0
   40.6890   62.6220   31.0690 C   0  0  0  0  0  0  0  0  0  0  0  0
   41.5040   61.5050   31.3040 C   0  0  0  0  0  0  0  0  0  0  0  0
   40.6040   60.3510   31.4510 C   0  0  0  0  0  0  0  0  0  0  0  0
   39.3560   60.8600   31.2950 C   0  0  0  0  0  0  0  0  0  0  0  0
   39.4000   62.1610   31.0770 N   0  0  0  0  0  0  0  0  0  0  0  0
   40.9240   58.9060   31.7120 C   0  0  0  0  0  0  0  0  0  0  0  0
   39.7330   58.1980   32.3720 C   0  0  1  0  0  0  0  0  0  0  0  0
   38.4110   58.6610   31.9380 N   0  0  0  0  0  0  0  0  0  0  0  0
   38.1720   59.9790   31.3770 C   0  0  2  0  0  0  0  0  0  0  0  0
   38.7990   55.9770   32.7440 N   0  0  0  0  0  0  0  0  0  0  0  0
   37.4540   56.5420   32.6290 C   0  0  0  0  0  0  0  0  0  0  0  0
   37.3130   57.8860   32.0690 C   0  0  0  0  0  0  0  0  0  0  0  0
   38.9700   54.5570   32.9950 C   0  0  0  0  0  0  0  0  0  0  0  0
   36.2040   58.2290   31.7450 O   0  0  0  0  0  0  0  0  0  0  0  0
   37.6130   59.9570   29.9110 C   0  0  0  0  0  0  0  0  0  0  0  0
   36.4920   60.6870   29.5520 C   0  0  0  0  0  0  0  0  0  0  0  0
   36.0440   60.6240   28.2300 C   0  0  0  0  0  0  0  0  0  0  0  0
   36.6760   59.8680   27.2940 C   0  0  0  0  0  0  0  0  0  0  0  0
   37.7930   59.1230   27.5970 C   0  0  0  0  0  0  0  0  0  0  0  0
   38.2430   59.1810   28.8980 C   0  0  0  0  0  0  0  0  0  0  0  0
   34.9560   61.2790   27.7090 O   0  0  0  0  0  0  0  0  0  0  0  0
   35.1810   61.0710   26.2830 C   0  0  0  0  0  0  0  0  0  0  0  0
   36.0560   59.9670   26.0830 O   0  0  0  0  0  0  0  0  0  0  0  0
   39.8830   56.7330   32.6350 C   0  0  0  0  0  0  0  0  0  0  0  0
   41.0500   56.3180   32.7290 O   0  0  0  0  0  0  0  0  0  0  0  0
   43.5170   60.7890   31.5360 H   0  0  0  0  0  0  0  0  0  0  0  0
   44.4190   63.0150   31.2010 H   0  0  0  0  0  0  0  0  0  0  0  0
   44.4240   62.9700   31.1460 H   0  0  0  0  0  0  0  0  0  0  0  0
   43.0320   64.9540   30.7970 H   0  0  0  0  0  0  0  0  0  0  0  0
   40.5660   64.7070   30.7020 H   0  0  0  0  0  0  0  0  0  0  0  0
   41.7720   58.8460   32.3610 H   0  0  0  0  0  0  0  0  0  0  0  0
   41.1340   58.4270   30.7790 H   0  0  0  0  0  0  0  0  0  0  0  0
   39.7800   58.5660   33.3760 H   0  0  0  0  0  0  0  0  0  0  0  0
   37.4610   60.3600   32.0800 H   0  0  0  0  0  0  0  0  0  0  0  0
   37.0350   56.5630   33.6130 H   0  0  0  0  0  0  0  0  0  0  0  0
   36.9610   55.9080   31.9230 H   0  0  0  0  0  0  0  0  0  0  0  0
   40.0140   54.3280   33.0470 H   0  0  0  0  0  0  0  0  0  0  0  0
   38.5220   53.9980   32.2010 H   0  0  0  0  0  0  0  0  0  0  0  0
   38.5020   54.3000   33.9220 H   0  0  0  0  0  0  0  0  0  0  0  0
   35.9960   61.2650   30.2480 H   0  0  0  0  0  0  0  0  0  0  0  0
   38.2700   58.5490   26.8850 H   0  0  0  0  0  0  0  0  0  0  0  0
   39.0800   58.6330   29.1510 H   0  0  0  0  0  0  0  0  0  0  0  0
   34.7660   61.6410   25.5300 H   0  0  0  0  0  0  0  0  0  0  0  0
   35.3120   62.0410   26.6090 H   0  0  0  0  0  0  0  0  0  0  0  0
  1 30  1  0  0  0  0
  4  3  2  0  0  0  0
  4  5  1  0  0  0  0
  5  9  2  0  0  0  0
  5  6  1  0  0  0  0
  6  1  2  0  0  0  0
  6  7  1  0  0  0  0
  7 10  1  0  0  0  0
  8 13  1  0  0  0  0
  8  7  2  0  0  0  0
  9  8  1  0  0  0  0
 10 35  1  0  0  0  0
 10 11  1  0  0  0  0
 11 28  1  0  0  0  0
 11 37  1  1  0  0  0
 12 16  1  0  0  0  0
 12 11  1  0  0  0  0
 13 12  1  0  0  0  0
 13 38  1  1  0  0  0
 14 17  1  0  0  0  0
 15 14  1  0  0  0  0
 15 39  1  0  0  0  0
 16 15  1  0  0  0  0
 17 41  1  0  0  0  0
 17 43  1  0  0  0  0
 18 16  2  0  0  0  0
 19 13  1  0  0  0  0
 20 19  1  0  0  0  0
 20 44  1  0  0  0  0
 21 20  2  0  0  0  0
 22 23  2  0  0  0  0
 22 21  1  0  0  0  0
 23 24  1  0  0  0  0
 24 46  1  0  0  0  0
 24 19  2  0  0  0  0
 25 21  1  0  0  0  0
 26 48  1  0  0  0  0
 27 26  1  0  0  0  0
 27 22  1  0  0  0  0
 28 29  2  0  0  0  0
 28 14  1  0  0  0  0
 32  2  1  0  0  0  0
 33  3  1  0  0  0  0
 34  4  1  0  0  0  0
 36 10  1  0  0  0  0
 40 15  1  0  0  0  0
 42 17  1  0  0  0  0
 45 23  1  0  0  0  0
 47 26  1  0  0  0  0
M  END
>  <Pose>
1

>  <Score>
-4.55

$$$$

 OpenBabel10152117013D

 48 49  0  0  1  0  0  0  0  0999 V2000
   35.6090   62.2070   28.6150 C   0  0  0  0  0  0  0  0  0  0  0  0
   35.4050   61.8860   27.2830 C   0  0  0  0  0  0  0  0  0  0  0  0
   35.3420   60.5620   26.7700 C   0  0  0  0  0  0  0  0  0  0  0  0
   35.4970   59.4640   27.6470 C   0  0  0  0  0  0  0  0  0  0  0  0
   35.7010   59.7790   28.9800 C   0  0  0  0  0  0  0  0  0  0  0  0
   35.7580   61.0950   29.4620 C   0  0  0  0  0  0  0  0  0  0  0  0
   35.9900   61.0020   30.9110 C   0  0  0  0  0  0  0  0  0  0  0  0
   36.0510   59.6720   31.1710 C   0  0  0  0  0  0  0  0  0  0  0  0
   35.8840   58.9670   30.0660 N   0  0  0  0  0  0  0  0  0  0  0  0
   36.1390   62.0910   31.9360 C   0  0  0  0  0  0  0  0  0  0  0  0
   35.7650   61.5780   33.3320 C   0  0  1  0  0  0  0  0  0  0  0  0
   36.1090   60.1760   33.5960 N   0  0  0  0  0  0  0  0  0  0  0  0
   36.2790   59.1860   32.5470 C   0  0  2  0  0  0  0  0  0  0  0  0
   36.0890   62.0700   35.6990 N   0  0  0  0  0  0  0  0  0  0  0  0
   36.0990   60.6340   35.9780 C   0  0  0  0  0  0  0  0  0  0  0  0
   36.2570   59.7100   34.8550 C   0  0  0  0  0  0  0  0  0  0  0  0
   36.2480   63.0220   36.7830 C   0  0  0  0  0  0  0  0  0  0  0  0
   36.5190   58.5650   35.1220 O   0  0  0  0  0  0  0  0  0  0  0  0
   37.7140   58.5540   32.4940 C   0  0  0  0  0  0  0  0  0  0  0  0
   37.9010   57.1810   32.4620 C   0  0  0  0  0  0  0  0  0  0  0  0
   39.2040   56.6810   32.4150 C   0  0  0  0  0  0  0  0  0  0  0  0
   40.2870   57.5020   32.4020 C   0  0  0  0  0  0  0  0  0  0  0  0
   40.1590   58.8720   32.4340 C   0  0  0  0  0  0  0  0  0  0  0  0
   38.8760   59.3740   32.4780 C   0  0  0  0  0  0  0  0  0  0  0  0
   39.5650   55.3570   32.3790 O   0  0  0  0  0  0  0  0  0  0  0  0
   40.9780   55.4780   32.0390 C   0  0  0  0  0  0  0  0  0  0  0  0
   41.4470   56.7850   32.3560 O   0  0  0  0  0  0  0  0  0  0  0  0
   35.9260   62.5380   34.4680 C   0  0  0  0  0  0  0  0  0  0  0  0
   35.9020   63.7420   34.1650 O   0  0  0  0  0  0  0  0  0  0  0  0
   35.6490   63.1800   28.9570 H   0  0  0  0  0  0  0  0  0  0  0  0
   35.2900   62.6640   26.6150 H   0  0  0  0  0  0  0  0  0  0  0  0
   35.3550   62.6860   26.6330 H   0  0  0  0  0  0  0  0  0  0  0  0
   35.1840   60.4030   25.7630 H   0  0  0  0  0  0  0  0  0  0  0  0
   35.4600   58.4880   27.3140 H   0  0  0  0  0  0  0  0  0  0  0  0
   35.4960   62.9070   31.6780 H   0  0  0  0  0  0  0  0  0  0  0  0
   37.1600   62.4120   31.9500 H   0  0  0  0  0  0  0  0  0  0  0  0
   34.6970   61.5390   33.2800 H   0  0  0  0  0  0  0  0  0  0  0  0
   35.5300   58.4770   32.8310 H   0  0  0  0  0  0  0  0  0  0  0  0
   35.1700   60.3980   36.4550 H   0  0  0  0  0  0  0  0  0  0  0  0
   36.9790   60.4860   36.5680 H   0  0  0  0  0  0  0  0  0  0  0  0
   36.2150   64.0170   36.3920 H   0  0  0  0  0  0  0  0  0  0  0  0
   37.1890   62.8590   37.2660 H   0  0  0  0  0  0  0  0  0  0  0  0
   35.4560   62.8910   37.4910 H   0  0  0  0  0  0  0  0  0  0  0  0
   37.0920   56.5400   32.4730 H   0  0  0  0  0  0  0  0  0  0  0  0
   40.9830   59.4930   32.4260 H   0  0  0  0  0  0  0  0  0  0  0  0
   38.7520   60.3980   32.5000 H   0  0  0  0  0  0  0  0  0  0  0  0
   41.5540   54.7270   31.6290 H   0  0  0  0  0  0  0  0  0  0  0  0
   40.3800   55.0910   31.2930 H   0  0  0  0  0  0  0  0  0  0  0  0
  1 30  1  0  0  0  0
  1  6  1  0  0  0  0
  3  4  2  0  0  0  0
  4  5  1  0  0  0  0
  5  6  2  0  0  0  0
  5  9  1  0  0  0  0
  6  7  1  0  0  0  0
  7  8  2  0  0  0  0
  7 10  1  0  0  0  0
  8 13  1  0  0  0  0
  9  8  1  0  0  0  0
 10 36  1  0  0  0  0
 10 11  1  0  0  0  0
 11 37  1  6  0  0  0
 11 12  1  0  0  0  0
 11 28  1  0  0  0  0
 12 16  1  0  0  0  0
 13 38  1  1  0  0  0
 13 12  1  0  0  0  0
 14 15  1  0  0  0  0
 14 17  1  0  0  0  0
 15 39  1  0  0  0  0
 15 40  1  0  0  0  0
 16 18  2  0  0  0  0
 16 15  1  0  0  0  0
 17 42  1  0  0  0  0
 17 43  1  0  0  0  0
 19 13  1  0  0  0  0
 20 44  1  0  0  0  0
 20 19  2  0  0  0  0
 21 20  1  0  0  0  0
 22 21  2  0  0  0  0
 22 23  1  0  0  0  0
 23 24  2  0  0  0  0
 24 19  1  0  0  0  0
 24 46  1  0  0  0  0
 25 21  1  0  0  0  0
 26 27  1  0  0  0  0
 27 22  1  0  0  0  0
 28 14  1  0  0  0  0
 29 28  2  0  0  0  0
 31  2  1  0  0  0  0
 33  3  1  0  0  0  0
 34  4  1  0  0  0  0
 35 10  1  0  0  0  0
 41 17  1  0  0  0  0
 45 23  1  0  0  0  0
 47 26  1  0  0  0  0
 48 26  1  0  0  0  0
M  END
>  <Pose>
1

>  <Score>
-4.45

$$$$

 OpenBabel10152117013D

 48 49  0  0  1  0  0  0  0  0999 V2000
   39.4450   56.5160   30.7240 C   0  0  0  0  0  0  0  0  0  0  0  0
   39.8330   55.8010   31.8450 C   0  0  0  0  0  0  0  0  0  0  0  0
   39.3810   56.0610   33.1670 C   0  0  0  0  0  0  0  0  0  0  0  0
   38.4720   57.1180   33.4000 C   0  0  0  0  0  0  0  0  0  0  0  0
   38.0810   57.8360   32.2830 C   0  0  0  0  0  0  0  0  0  0  0  0
   38.5400   57.5590   30.9870 C   0  0  0  0  0  0  0  0  0  0  0  0
   37.8990   58.5360   30.0950 C   0  0  0  0  0  0  0  0  0  0  0  0
   37.1280   59.2990   30.9100 C   0  0  0  0  0  0  0  0  0  0  0  0
   37.2280   58.9000   32.1640 N   0  0  0  0  0  0  0  0  0  0  0  0
   38.0250   58.7130   28.6080 C   0  0  0  0  0  0  0  0  0  0  0  0
   36.7810   59.4060   28.0360 C   0  0  1  0  0  0  0  0  0  0  0  0
   36.1650   60.4070   28.9130 N   0  0  0  0  0  0  0  0  0  0  0  0
   36.3220   60.4070   30.3570 C   0  0  2  0  0  0  0  0  0  0  0  0
   36.0250   60.6810   26.1000 N   0  0  0  0  0  0  0  0  0  0  0  0
   35.1540   61.4640   26.9770 C   0  0  0  0  0  0  0  0  0  0  0  0
   35.3750   61.3860   28.4220 C   0  0  0  0  0  0  0  0  0  0  0  0
   36.0560   60.9560   24.6750 C   0  0  0  0  0  0  0  0  0  0  0  0
   34.8320   62.2190   29.1030 O   0  0  0  0  0  0  0  0  0  0  0  0
   37.0100   61.6980   30.9240 C   0  0  0  0  0  0  0  0  0  0  0  0
   38.3400   61.9850   30.6620 C   0  0  0  0  0  0  0  0  0  0  0  0
   38.8940   63.1510   31.1960 C   0  0  0  0  0  0  0  0  0  0  0  0
   38.1660   64.0030   31.9650 C   0  0  0  0  0  0  0  0  0  0  0  0
   36.8430   63.7650   32.2590 C   0  0  0  0  0  0  0  0  0  0  0  0
   36.2880   62.6180   31.7330 C   0  0  0  0  0  0  0  0  0  0  0  0
   40.1860   63.5830   31.0350 O   0  0  0  0  0  0  0  0  0  0  0  0
   40.0740   64.9460   31.5440 C   0  0  0  0  0  0  0  0  0  0  0  0
   38.9210   65.0650   32.3710 O   0  0  0  0  0  0  0  0  0  0  0  0
   36.7920   59.7060   26.5710 C   0  0  0  0  0  0  0  0  0  0  0  0
   37.5470   59.0010   25.8810 O   0  0  0  0  0  0  0  0  0  0  0  0
   39.7920   56.3010   29.7760 H   0  0  0  0  0  0  0  0  0  0  0  0
   40.4980   55.0230   31.7110 H   0  0  0  0  0  0  0  0  0  0  0  0
   40.5440   55.0710   31.6860 H   0  0  0  0  0  0  0  0  0  0  0  0
   39.7160   55.4820   33.9530 H   0  0  0  0  0  0  0  0  0  0  0  0
   38.1220   57.3410   34.3450 H   0  0  0  0  0  0  0  0  0  0  0  0
   38.1340   57.7520   28.1490 H   0  0  0  0  0  0  0  0  0  0  0  0
   38.8810   59.3210   28.4050 H   0  0  0  0  0  0  0  0  0  0  0  0
   36.0570   58.6190   28.0530 H   0  0  0  0  0  0  0  0  0  0  0  0
   35.2990   60.3230   30.6600 H   0  0  0  0  0  0  0  0  0  0  0  0
   34.1500   61.1450   26.7930 H   0  0  0  0  0  0  0  0  0  0  0  0
   35.3760   62.4810   26.7310 H   0  0  0  0  0  0  0  0  0  0  0  0
   36.7450   60.2900   24.1990 H   0  0  0  0  0  0  0  0  0  0  0  0
   36.3680   61.9670   24.5140 H   0  0  0  0  0  0  0  0  0  0  0  0
   35.0790   60.8130   24.2630 H   0  0  0  0  0  0  0  0  0  0  0  0
   38.9100   61.3500   30.0820 H   0  0  0  0  0  0  0  0  0  0  0  0
   36.2940   64.4130   32.8450 H   0  0  0  0  0  0  0  0  0  0  0  0
   35.2970   62.4170   31.9370 H   0  0  0  0  0  0  0  0  0  0  0  0
   40.7340   65.7110   31.3350 H   0  0  0  0  0  0  0  0  0  0  0  0
   40.2230   64.8700   30.5260 H   0  0  0  0  0  0  0  0  0  0  0  0
  1  6  1  0  0  0  0
  3  4  2  0  0  0  0
  3 33  1  0  0  0  0
  4 34  1  0  0  0  0
  5  4  1  0  0  0  0
  6  5  2  0  0  0  0
  7  8  2  0  0  0  0
  7  6  1  0  0  0  0
  8  9  1  0  0  0  0
  9  5  1  0  0  0  0
 10  7  1  0  0  0  0
 11 37  1  1  0  0  0
 11 10  1  0  0  0  0
 11 12  1  0  0  0  0
 12 13  1  0  0  0  0
 13 38  1  1  0  0  0
 13  8  1  0  0  0  0
 13 19  1  0  0  0  0
 14 28  1  0  0  0  0
 14 15  1  0  0  0  0
 15 16  1  0  0  0  0
 16 12  1  0  0  0  0
 16 18  2  0  0  0  0
 17 14  1  0  0  0  0
 19 24  1  0  0  0  0
 20 19  2  0  0  0  0
 20 21  1  0  0  0  0
 21 22  2  0  0  0  0
 22 23  1  0  0  0  0
 22 27  1  0  0  0  0
 23 45  1  0  0  0  0
 24 46  1  0  0  0  0
 24 23  2  0  0  0  0
 25 21  1  0  0  0  0
 26 27  1  0  0  0  0
 28 11  1  0  0  0  0
 29 28  2  0  0  0  0
 30  1  1  0  0  0  0
 32  2  1  0  0  0  0
 35 10  1  0  0  0  0
 36 10  1  0  0  0  0
 39 15  1  0  0  0  0
 40 15  1  0  0  0  0
 41 17  1  0  0  0  0
 42 17  1  0  0  0  0
 43 17  1  0  0  0  0
 44 20  1  0  0  0  0
 47 26  1  0  0  0  0
 48 26  1  0  0  0  0
M  END
>  <Pose>
2

>  <Score>
-4.40

$$$$

 OpenBabel10152117013D

 48 49  0  0  1  0  0  0  0  0999 V2000
   43.2530   60.7050   31.5650 C   0  0  0  0  0  0  0  0  0  0  0  0
   43.6580   62.0290   31.6130 C   0  0  0  0  0  0  0  0  0  0  0  0
   42.7830   63.1390   31.7580 C   0  0  0  0  0  0  0  0  0  0  0  0
   41.3900   62.9230   31.8630 C   0  0  0  0  0  0  0  0  0  0  0  0
   40.9790   61.6010   31.8170 C   0  0  0  0  0  0  0  0  0  0  0  0
   41.8630   60.5220   31.6740 C   0  0  0  0  0  0  0  0  0  0  0  0
   41.0410   59.3030   31.6660 C   0  0  0  0  0  0  0  0  0  0  0  0
   39.7640   59.7410   31.8020 C   0  0  0  0  0  0  0  0  0  0  0  0
   39.7240   61.0580   31.8910 N   0  0  0  0  0  0  0  0  0  0  0  0
   41.4520   57.8630   31.5370 C   0  0  0  0  0  0  0  0  0  0  0  0
   40.4010   56.9400   32.1660 C   0  0  1  0  0  0  0  0  0  0  0  0
   39.0120   57.3920   32.0340 N   0  0  0  0  0  0  0  0  0  0  0  0
   38.6410   58.7820   31.8330 C   0  0  2  0  0  0  0  0  0  0  0  0
   39.6200   54.6300   32.1310 N   0  0  0  0  0  0  0  0  0  0  0  0
   38.2520   55.1080   32.3330 C   0  0  0  0  0  0  0  0  0  0  0  0
   37.9760   56.5300   32.1260 C   0  0  0  0  0  0  0  0  0  0  0  0
   39.8830   53.2070   32.0180 C   0  0  0  0  0  0  0  0  0  0  0  0
   36.8200   56.8550   32.0430 O   0  0  0  0  0  0  0  0  0  0  0  0
   37.8740   59.0510   30.4920 C   0  0  0  0  0  0  0  0  0  0  0  0
   36.7240   59.8230   30.4560 C   0  0  0  0  0  0  0  0  0  0  0  0
   36.0880   60.0250   29.2290 C   0  0  0  0  0  0  0  0  0  0  0  0
   36.5640   59.4830   28.0770 C   0  0  0  0  0  0  0  0  0  0  0  0
   37.6990   58.7060   28.0560 C   0  0  0  0  0  0  0  0  0  0  0  0
   38.3350   58.5050   29.2620 C   0  0  0  0  0  0  0  0  0  0  0  0
   34.9470   60.7580   29.0170 O   0  0  0  0  0  0  0  0  0  0  0  0
   34.9580   60.8470   27.5610 C   0  0  0  0  0  0  0  0  0  0  0  0
   35.7750   59.8170   27.0150 O   0  0  0  0  0  0  0  0  0  0  0  0
   40.6460   55.4680   32.0570 C   0  0  0  0  0  0  0  0  0  0  0  0
   41.8290   55.1280   31.8940 O   0  0  0  0  0  0  0  0  0  0  0  0
   43.9140   59.9210   31.4600 H   0  0  0  0  0  0  0  0  0  0  0  0
   44.6690   62.2240   31.5370 H   0  0  0  0  0  0  0  0  0  0  0  0
   44.6670   62.1930   31.4730 H   0  0  0  0  0  0  0  0  0  0  0  0
   43.1620   64.0990   31.7870 H   0  0  0  0  0  0  0  0  0  0  0  0
   40.7210   63.7010   31.9680 H   0  0  0  0  0  0  0  0  0  0  0  0
   42.3890   57.7200   32.0340 H   0  0  0  0  0  0  0  0  0  0  0  0
   41.5420   57.6230   30.4980 H   0  0  0  0  0  0  0  0  0  0  0  0
   40.5800   57.0740   33.2130 H   0  0  0  0  0  0  0  0  0  0  0  0
   38.0270   58.9410   32.6950 H   0  0  0  0  0  0  0  0  0  0  0  0
   37.9810   54.8760   33.3410 H   0  0  0  0  0  0  0  0  0  0  0  0
   37.6850   54.6150   31.5700 H   0  0  0  0  0  0  0  0  0  0  0  0
   40.9310   53.0490   31.8750 H   0  0  0  0  0  0  0  0  0  0  0  0
   39.3450   52.8100   31.1820 H   0  0  0  0  0  0  0  0  0  0  0  0
   39.5660   52.7140   32.9130 H   0  0  0  0  0  0  0  0  0  0  0  0
   36.3460   60.2420   31.3200 H   0  0  0  0  0  0  0  0  0  0  0  0
   38.0580   58.2950   27.1800 H   0  0  0  0  0  0  0  0  0  0  0  0
   39.1910   57.9280   29.2730 H   0  0  0  0  0  0  0  0  0  0  0  0
   34.4470   61.5520   27.0080 H   0  0  0  0  0  0  0  0  0  0  0  0
   35.1520   61.7320   28.0540 H   0  0  0  0  0  0  0  0  0  0  0  0
  1  6  1  0  0  0  0
  3 33  1  0  0  0  0
  3  4  2  0  0  0  0
  4 34  1  0  0  0  0
  5  4  1  0  0  0  0
  5  9  1  0  0  0  0
  6  5  2  0  0  0  0
  7  6  1  0  0  0  0
  7  8  2  0  0  0  0
  8 13  1  0  0  0  0
  8  9  1  0  0  0  0
 10  7  1  0  0  0  0
 10 35  1  0  0  0  0
 10 11  1  0  0  0  0
 11 37  1  1  0  0  0
 12 16  1  0  0  0  0
 12 11  1  0  0  0  0
 13 12  1  0  0  0  0
 13 38  1  1  0  0  0
 14 15  1  0  0  0  0
 15 39  1  0  0  0  0
 16 15  1  0  0  0  0
 17 14  1  0  0  0  0
 17 43  1  0  0  0  0
 18 16  2  0  0  0  0
 19 13  1  0  0  0  0
 20 19  1  0  0  0  0
 20 44  1  0  0  0  0
 21 20  2  0  0  0  0
 22 21  1  0  0  0  0
 23 22  2  0  0  0  0
 23 24  1  0  0  0  0
 24 46  1  0  0  0  0
 24 19  2  0  0  0  0
 25 21  1  0  0  0  0
 26 48  1  0  0  0  0
 27 26  1  0  0  0  0
 27 22  1  0  0  0  0
 28 14  1  0  0  0  0
 28 11  1  0  0  0  0
 29 28  2  0  0  0  0
 30  1  1  0  0  0  0
 32  2  1  0  0  0  0
 36 10  1  0  0  0  0
 40 15  1  0  0  0  0
 41 17  1  0  0  0  0
 42 17  1  0  0  0  0
 45 23  1  0  0  0  0
 47 26  1  0  0  0  0
M  END
>  <Pose>
1

>  <Score>
-4.39

$$$$
