
 OpenBabel10152117013D

 48 49  0  0  1  0  0  0  0  0999 V2000
   39.7540   56.7690   30.8150 C   0  0  0  0  0  0  0  0  0  0  0  0
   40.0850   56.0680   31.9640 C   0  0  0  0  0  0  0  0  0  0  0  0
   39.3660   56.1330   33.1870 C   0  0  0  0  0  0  0  0  0  0  0  0
   38.2260   56.9630   33.2850 C   0  0  0  0  0  0  0  0  0  0  0  0
   37.8900   57.6650   32.1410 C   0  0  0  0  0  0  0  0  0  0  0  0
   38.6160   57.5830   30.9430 C   0  0  0  0  0  0  0  0  0  0  0  0
   37.9450   58.4730   29.9830 C   0  0  0  0  0  0  0  0  0  0  0  0
   36.8990   59.0000   30.6680 C   0  0  0  0  0  0  0  0  0  0  0  0
   36.8630   58.5390   31.9040 N   0  0  0  0  0  0  0  0  0  0  0  0
   38.2860   58.7790   28.5520 C   0  0  0  0  0  0  0  0  0  0  0  0
   37.0410   59.2450   27.7850 C   0  0  1  0  0  0  0  0  0  0  0  0
   36.0830   60.0330   28.5680 N   0  0  0  0  0  0  0  0  0  0  0  0
   35.9830   59.9590   30.0150 C   0  0  2  0  0  0  0  0  0  0  0  0
   36.3770   60.4780   25.7890 N   0  0  0  0  0  0  0  0  0  0  0  0
   35.2210   61.0000   26.5170 C   0  0  0  0  0  0  0  0  0  0  0  0
   35.1990   60.8630   27.9740 C   0  0  0  0  0  0  0  0  0  0  0  0
   36.5950   60.8570   24.4050 C   0  0  0  0  0  0  0  0  0  0  0  0
   34.3820   61.5160   28.5720 O   0  0  0  0  0  0  0  0  0  0  0  0
   36.2710   61.3170   30.7450 C   0  0  0  0  0  0  0  0  0  0  0  0
   37.3210   62.1360   30.3640 C   0  0  0  0  0  0  0  0  0  0  0  0
   37.5250   63.3340   31.0540 C   0  0  0  0  0  0  0  0  0  0  0  0
   36.7240   63.7110   32.0860 C   0  0  0  0  0  0  0  0  0  0  0  0
   35.6690   62.9340   32.5070 C   0  0  0  0  0  0  0  0  0  0  0  0
   35.4600   61.7530   31.8290 C   0  0  0  0  0  0  0  0  0  0  0  0
   38.5110   64.2550   30.8090 O   0  0  0  0  0  0  0  0  0  0  0  0
   38.0330   65.3750   31.6120 C   0  0  0  0  0  0  0  0  0  0  0  0
   37.1200   64.9110   32.6010 O   0  0  0  0  0  0  0  0  0  0  0  0
   37.2410   59.6470   26.3580 C   0  0  0  0  0  0  0  0  0  0  0  0
   38.2370   59.1640   25.7950 O   0  0  0  0  0  0  0  0  0  0  0  0
   40.2970   56.6990   29.9410 H   0  0  0  0  0  0  0  0  0  0  0  0
   40.9140   55.4540   31.9270 H   0  0  0  0  0  0  0  0  0  0  0  0
   40.9530   55.5110   31.9130 H   0  0  0  0  0  0  0  0  0  0  0  0
   39.6750   55.5780   34.0010 H   0  0  0  0  0  0  0  0  0  0  0  0
   37.6780   57.0400   34.1560 H   0  0  0  0  0  0  0  0  0  0  0  0
   38.6760   57.8980   28.0870 H   0  0  0  0  0  0  0  0  0  0  0  0
   39.0150   59.5630   28.5330 H   0  0  0  0  0  0  0  0  0  0  0  0
   36.5100   58.3280   27.6400 H   0  0  0  0  0  0  0  0  0  0  0  0
   34.9660   59.6460   30.1200 H   0  0  0  0  0  0  0  0  0  0  0  0
   34.3550   60.4980   26.1390 H   0  0  0  0  0  0  0  0  0  0  0  0
   35.2600   62.0560   26.3520 H   0  0  0  0  0  0  0  0  0  0  0  0
   37.4820   60.3820   24.0410 H   0  0  0  0  0  0  0  0  0  0  0  0
   36.7070   61.9190   24.3390 H   0  0  0  0  0  0  0  0  0  0  0  0
   35.7580   60.5490   23.8150 H   0  0  0  0  0  0  0  0  0  0  0  0
   37.9420   61.8670   29.5850 H   0  0  0  0  0  0  0  0  0  0  0  0
   35.0640   63.2220   33.2920 H   0  0  0  0  0  0  0  0  0  0  0  0
   34.6740   61.1530   32.1240 H   0  0  0  0  0  0  0  0  0  0  0  0
   38.3150   66.3590   31.4820 H   0  0  0  0  0  0  0  0  0  0  0  0
   37.9760   65.5130   30.5910 H   0  0  0  0  0  0  0  0  0  0  0  0
  1  6  1  0  0  0  0
  3  4  2  0  0  0  0
  3 33  1  0  0  0  0
  4 34  1  0  0  0  0
  5  4  1  0  0  0  0
  6  5  2  0  0  0  0
  7  8  2  0  0  0  0
  7  6  1  0  0  0  0
  8  9  1  0  0  0  0
  9  5  1  0  0  0  0
 10  7  1  0  0  0  0
 11 37  1  6  0  0  0
 11 10  1  0  0  0  0
 11 12  1  0  0  0  0
 12 13  1  0  0  0  0
 13 38  1  1  0  0  0
 13  8  1  0  0  0  0
 13 19  1  0  0  0  0
 14 28  1  0  0  0  0
 14 15  1  0  0  0  0
 15 16  1  0  0  0  0
 16 12  1  0  0  0  0
 16 18  2  0  0  0  0
 17 14  1  0  0  0  0
 19 24  1  0  0  0  0
 20 19  2  0  0  0  0
 20 21  1  0  0  0  0
 21 22  2  0  0  0  0
 22 23  1  0  0  0  0
 22 27  1  0  0  0  0
 23 45  1  0  0  0  0
 24 46  1  0  0  0  0
 24 23  2  0  0  0  0
 25 21  1  0  0  0  0
 26 27  1  0  0  0  0
 28 11  1  0  0  0  0
 29 28  2  0  0  0  0
 30  1  1  0  0  0  0
 31  2  1  0  0  0  0
 35 10  1  0  0  0  0
 36 10  1  0  0  0  0
 39 15  1  0  0  0  0
 40 15  1  0  0  0  0
 41 17  1  0  0  0  0
 42 17  1  0  0  0  0
 43 17  1  0  0  0  0
 44 20  1  0  0  0  0
 47 26  1  0  0  0  0
 48 26  1  0  0  0  0
M  END
>  <Pose>
1

>  <Score>
-4.79

$$$$

 OpenBabel10152117013D

 48 49  0  0  1  0  0  0  0  0999 V2000
   49.5570   54.5250   21.0510 C   0  0  0  0  0  0  0  0  0  0  0  0
   50.2760   54.9490   19.9460 C   0  0  0  0  0  0  0  0  0  0  0  0
   50.2520   56.2690   19.4220 C   0  0  0  0  0  0  0  0  0  0  0  0
   49.4480   57.2530   20.0410 C   0  0  0  0  0  0  0  0  0  0  0  0
   48.7270   56.8350   21.1470 C   0  0  0  0  0  0  0  0  0  0  0  0
   48.7680   55.5250   21.6460 C   0  0  0  0  0  0  0  0  0  0  0  0
   47.8710   55.4900   22.8110 C   0  0  0  0  0  0  0  0  0  0  0  0
   47.3800   56.7510   22.9110 C   0  0  0  0  0  0  0  0  0  0  0  0
   47.8690   57.5260   21.9600 N   0  0  0  0  0  0  0  0  0  0  0  0
   47.5260   54.3520   23.7290 C   0  0  0  0  0  0  0  0  0  0  0  0
   47.0690   54.8760   25.0960 C   0  0  1  0  0  0  0  0  0  0  0  0
   46.3180   56.1360   25.0640 N   0  0  0  0  0  0  0  0  0  0  0  0
   46.4260   57.1010   23.9840 C   0  0  2  0  0  0  0  0  0  0  0  0
   45.8060   54.2100   27.0730 N   0  0  0  0  0  0  0  0  0  0  0  0
   45.3230   55.5840   27.2070 C   0  0  0  0  0  0  0  0  0  0  0  0
   45.4920   56.4920   26.0720 C   0  0  0  0  0  0  0  0  0  0  0  0
   45.3920   53.1990   28.0290 C   0  0  0  0  0  0  0  0  0  0  0  0
   44.8700   57.5230   26.0990 O   0  0  0  0  0  0  0  0  0  0  0  0
   45.0780   57.3620   23.2240 C   0  0  0  0  0  0  0  0  0  0  0  0
   44.3730   56.3310   22.6230 C   0  0  0  0  0  0  0  0  0  0  0  0
   43.1800   56.6290   21.9620 C   0  0  0  0  0  0  0  0  0  0  0  0
   42.6970   57.8980   21.8920 C   0  0  0  0  0  0  0  0  0  0  0  0
   43.3580   58.9580   22.4690 C   0  0  0  0  0  0  0  0  0  0  0  0
   44.5340   58.6730   23.1250 C   0  0  0  0  0  0  0  0  0  0  0  0
   42.3620   55.7350   21.3180 O   0  0  0  0  0  0  0  0  0  0  0  0
   41.1790   56.5610   21.1100 C   0  0  0  0  0  0  0  0  0  0  0  0
   41.5230   57.9390   21.1970 O   0  0  0  0  0  0  0  0  0  0  0  0
   46.6310   53.8540   26.0970 C   0  0  0  0  0  0  0  0  0  0  0  0
   47.0820   52.7090   25.9320 O   0  0  0  0  0  0  0  0  0  0  0  0
   49.5960   53.5570   21.4080 H   0  0  0  0  0  0  0  0  0  0  0  0
   50.8720   54.2550   19.4680 H   0  0  0  0  0  0  0  0  0  0  0  0
   50.8140   54.2170   19.4550 H   0  0  0  0  0  0  0  0  0  0  0  0
   50.8180   56.5090   18.5930 H   0  0  0  0  0  0  0  0  0  0  0  0
   49.4010   58.2220   19.6900 H   0  0  0  0  0  0  0  0  0  0  0  0
   48.3900   53.7330   23.8610 H   0  0  0  0  0  0  0  0  0  0  0  0
   46.7280   53.7880   23.2920 H   0  0  0  0  0  0  0  0  0  0  0  0
   47.9930   55.1790   25.5420 H   0  0  0  0  0  0  0  0  0  0  0  0
   46.7610   57.9590   24.5280 H   0  0  0  0  0  0  0  0  0  0  0  0
   45.8340   56.0200   28.0400 H   0  0  0  0  0  0  0  0  0  0  0  0
   44.2630   55.4830   27.3080 H   0  0  0  0  0  0  0  0  0  0  0  0
   45.8410   52.2620   27.7740 H   0  0  0  0  0  0  0  0  0  0  0  0
   44.3270   53.1020   28.0070 H   0  0  0  0  0  0  0  0  0  0  0  0
   45.7040   53.4880   29.0110 H   0  0  0  0  0  0  0  0  0  0  0  0
   44.7240   55.3620   22.6640 H   0  0  0  0  0  0  0  0  0  0  0  0
   42.9890   59.9210   22.4120 H   0  0  0  0  0  0  0  0  0  0  0  0
   45.0490   59.4500   23.5690 H   0  0  0  0  0  0  0  0  0  0  0  0
   40.2300   56.1990   20.9260 H   0  0  0  0  0  0  0  0  0  0  0  0
   41.0670   55.8030   21.8020 H   0  0  0  0  0  0  0  0  0  0  0  0
  1 30  1  0  0  0  0
  1  6  1  0  0  0  0
  3  4  2  0  0  0  0
  4  5  1  0  0  0  0
  5  6  2  0  0  0  0
  5  9  1  0  0  0  0
  6  7  1  0  0  0  0
  7  8  2  0  0  0  0
  7 10  1  0  0  0  0
  8 13  1  0  0  0  0
  9  8  1  0  0  0  0
 10 35  1  0  0  0  0
 10 11  1  0  0  0  0
 11 37  1  1  0  0  0
 11 28  1  0  0  0  0
 12 11  1  0  0  0  0
 12 16  1  0  0  0  0
 13 38  1  1  0  0  0
 13 12  1  0  0  0  0
 14 15  1  0  0  0  0
 14 17  1  0  0  0  0
 15 40  1  0  0  0  0
 15 39  1  0  0  0  0
 16 18  2  0  0  0  0
 16 15  1  0  0  0  0
 17 43  1  0  0  0  0
 19 13  1  0  0  0  0
 20 44  1  0  0  0  0
 20 19  2  0  0  0  0
 21 20  1  0  0  0  0
 22 21  2  0  0  0  0
 22 23  1  0  0  0  0
 23 24  2  0  0  0  0
 24 19  1  0  0  0  0
 24 46  1  0  0  0  0
 25 21  1  0  0  0  0
 26 27  1  0  0  0  0
 26 48  1  0  0  0  0
 27 22  1  0  0  0  0
 28 14  1  0  0  0  0
 29 28  2  0  0  0  0
 31  2  1  0  0  0  0
 33  3  1  0  0  0  0
 34  4  1  0  0  0  0
 36 10  1  0  0  0  0
 41 17  1  0  0  0  0
 42 17  1  0  0  0  0
 45 23  1  0  0  0  0
 47 26  1  0  0  0  0
M  END
>  <Pose>
1

>  <Score>
-4.34

$$$$

 OpenBabel10152117013D

 48 49  0  0  1  0  0  0  0  0999 V2000
   45.2600   60.1910   25.4790 C   0  0  0  0  0  0  0  0  0  0  0  0
   44.8940   61.2630   24.6820 C   0  0  0  0  0  0  0  0  0  0  0  0
   44.5630   61.1710   23.3030 C   0  0  0  0  0  0  0  0  0  0  0  0
   44.5990   59.9150   22.6570 C   0  0  0  0  0  0  0  0  0  0  0  0
   44.9640   58.8390   23.4480 C   0  0  0  0  0  0  0  0  0  0  0  0
   45.2850   58.9550   24.8090 C   0  0  0  0  0  0  0  0  0  0  0  0
   45.6170   57.6020   25.2790 C   0  0  0  0  0  0  0  0  0  0  0  0
   45.4700   56.8070   24.1900 C   0  0  0  0  0  0  0  0  0  0  0  0
   45.0940   57.5120   23.1380 N   0  0  0  0  0  0  0  0  0  0  0  0
   46.0350   57.1310   26.6440 C   0  0  0  0  0  0  0  0  0  0  0  0
   45.6960   55.6470   26.8340 C   0  0  1  0  0  0  0  0  0  0  0  0
   45.8140   54.8190   25.6290 N   0  0  0  0  0  0  0  0  0  0  0  0
   45.7250   55.3550   24.2810 C   0  0  2  0  0  0  0  0  0  0  0  0
   46.2940   53.7080   28.1860 N   0  0  0  0  0  0  0  0  0  0  0  0
   46.0800   52.8500   27.0210 C   0  0  0  0  0  0  0  0  0  0  0  0
   45.9840   53.4810   25.7040 C   0  0  0  0  0  0  0  0  0  0  0  0
   46.7020   53.1250   29.4510 C   0  0  0  0  0  0  0  0  0  0  0  0
   46.0670   52.7580   24.7440 O   0  0  0  0  0  0  0  0  0  0  0  0
   47.0200   55.1410   23.4230 C   0  0  0  0  0  0  0  0  0  0  0  0
   47.0280   55.3600   22.0550 C   0  0  0  0  0  0  0  0  0  0  0  0
   48.2140   55.1530   21.3470 C   0  0  0  0  0  0  0  0  0  0  0  0
   49.3530   54.7400   21.9630 C   0  0  0  0  0  0  0  0  0  0  0  0
   49.4010   54.5060   23.3180 C   0  0  0  0  0  0  0  0  0  0  0  0
   48.2360   54.7110   24.0240 C   0  0  0  0  0  0  0  0  0  0  0  0
   48.3950   55.3210   19.9970 O   0  0  0  0  0  0  0  0  0  0  0  0
   49.8490   55.2550   19.9150 C   0  0  0  0  0  0  0  0  0  0  0  0
   50.3750   54.6060   21.0680 O   0  0  0  0  0  0  0  0  0  0  0  0
   46.1130   55.0210   28.1270 C   0  0  0  0  0  0  0  0  0  0  0  0
   46.2700   55.8030   29.0790 O   0  0  0  0  0  0  0  0  0  0  0  0
   45.4940   60.2900   26.4790 H   0  0  0  0  0  0  0  0  0  0  0  0
   44.8590   62.1960   25.1210 H   0  0  0  0  0  0  0  0  0  0  0  0
   44.9280   62.1890   25.1360 H   0  0  0  0  0  0  0  0  0  0  0  0
   44.2970   62.0180   22.7760 H   0  0  0  0  0  0  0  0  0  0  0  0
   44.3680   59.8060   21.6570 H   0  0  0  0  0  0  0  0  0  0  0  0
   45.5220   57.7060   27.3860 H   0  0  0  0  0  0  0  0  0  0  0  0
   47.0930   57.2570   26.7410 H   0  0  0  0  0  0  0  0  0  0  0  0
   44.6360   55.6750   26.9810 H   0  0  0  0  0  0  0  0  0  0  0  0
   44.8910   54.7960   23.9100 H   0  0  0  0  0  0  0  0  0  0  0  0
   45.1680   52.3160   27.1840 H   0  0  0  0  0  0  0  0  0  0  0  0
   46.9680   52.2560   26.9640 H   0  0  0  0  0  0  0  0  0  0  0  0
   46.8090   53.8990   30.1830 H   0  0  0  0  0  0  0  0  0  0  0  0
   47.6380   52.6220   29.3260 H   0  0  0  0  0  0  0  0  0  0  0  0
   45.9620   52.4250   29.7780 H   0  0  0  0  0  0  0  0  0  0  0  0
   46.1730   55.6720   21.5680 H   0  0  0  0  0  0  0  0  0  0  0  0
   50.2670   54.1910   23.7830 H   0  0  0  0  0  0  0  0  0  0  0  0
   48.2450   54.5450   25.0430 H   0  0  0  0  0  0  0  0  0  0  0  0
   50.4150   55.6250   19.1350 H   0  0  0  0  0  0  0  0  0  0  0  0
   49.4430   56.1870   19.7380 H   0  0  0  0  0  0  0  0  0  0  0  0
  1 30  1  0  0  0  0
  2 31  1  0  0  0  0
  4  3  2  0  0  0  0
  4  5  1  0  0  0  0
  5  6  1  0  0  0  0
  6  7  1  0  0  0  0
  6  1  2  0  0  0  0
  7 10  1  0  0  0  0
  8 13  1  0  0  0  0
  8  7  2  0  0  0  0
  9  5  2  0  0  0  0
  9  8  1  0  0  0  0
 10 36  1  0  0  0  0
 10 11  1  0  0  0  0
 10 35  1  0  0  0  0
 11 37  1  1  0  0  0
 11 28  1  0  0  0  0
 12 16  1  0  0  0  0
 12 11  1  0  0  0  0
 13 38  1  6  0  0  0
 13 12  1  0  0  0  0
 14 17  1  0  0  0  0
 15 39  1  0  0  0  0
 15 14  1  0  0  0  0
 16 15  1  0  0  0  0
 17 43  1  0  0  0  0
 17 41  1  0  0  0  0
 18 16  2  0  0  0  0
 19 24  1  0  0  0  0
 19 13  1  0  0  0  0
 20 19  2  0  0  0  0
 21 22  2  0  0  0  0
 21 20  1  0  0  0  0
 22 23  1  0  0  0  0
 23 45  1  0  0  0  0
 23 24  2  0  0  0  0
 24 46  1  0  0  0  0
 25 21  1  0  0  0  0
 26 27  1  0  0  0  0
 27 22  1  0  0  0  0
 28 14  1  0  0  0  0
 28 29  2  0  0  0  0
 33  3  1  0  0  0  0
 34  4  1  0  0  0  0
 40 15  1  0  0  0  0
 42 17  1  0  0  0  0
 44 20  1  0  0  0  0
 47 26  1  0  0  0  0
 48 26  1  0  0  0  0
M  END
>  <Pose>
1

>  <Score>
-4.08

$$$$

 OpenBabel10152117013D

 48 49  0  0  1  0  0  0  0  0999 V2000
   46.6260   57.8730   24.7340 C   0  0  0  0  0  0  0  0  0  0  0  0
   47.1990   56.6570   24.4010 C   0  0  0  0  0  0  0  0  0  0  0  0
   46.8890   55.9090   23.2330 C   0  0  0  0  0  0  0  0  0  0  0  0
   45.9310   56.4030   22.3190 C   0  0  0  0  0  0  0  0  0  0  0  0
   45.3550   57.6190   22.6470 C   0  0  0  0  0  0  0  0  0  0  0  0
   45.6780   58.3390   23.8060 C   0  0  0  0  0  0  0  0  0  0  0  0
   44.8560   59.5580   23.7880 C   0  0  0  0  0  0  0  0  0  0  0  0
   44.1260   59.4690   22.6470 C   0  0  0  0  0  0  0  0  0  0  0  0
   44.4100   58.3600   21.9900 N   0  0  0  0  0  0  0  0  0  0  0  0
   44.7840   60.6880   24.7750 C   0  0  0  0  0  0  0  0  0  0  0  0
   44.2890   61.9720   24.0960 C   0  0  1  0  0  0  0  0  0  0  0  0
   43.3000   61.7740   23.0310 N   0  0  0  0  0  0  0  0  0  0  0  0
   43.1670   60.5330   22.2860 C   0  0  2  0  0  0  0  0  0  0  0  0
   43.2680   64.1280   24.6000 N   0  0  0  0  0  0  0  0  0  0  0  0
   42.5250   64.0510   23.3420 C   0  0  0  0  0  0  0  0  0  0  0  0
   42.4620   62.7630   22.6520 C   0  0  0  0  0  0  0  0  0  0  0  0
   43.1050   65.2780   25.4700 C   0  0  0  0  0  0  0  0  0  0  0  0
   41.6470   62.6540   21.7710 O   0  0  0  0  0  0  0  0  0  0  0  0
   41.7640   59.8470   22.4350 C   0  0  0  0  0  0  0  0  0  0  0  0
   40.8750   60.2210   23.4290 C   0  0  0  0  0  0  0  0  0  0  0  0
   39.6420   59.5710   23.5070 C   0  0  0  0  0  0  0  0  0  0  0  0
   39.2950   58.5850   22.6390 C   0  0  0  0  0  0  0  0  0  0  0  0
   40.1400   58.1720   21.6350 C   0  0  0  0  0  0  0  0  0  0  0  0
   41.3580   58.8110   21.5490 C   0  0  0  0  0  0  0  0  0  0  0  0
   38.6510   59.8170   24.4250 O   0  0  0  0  0  0  0  0  0  0  0  0
   37.5470   59.0750   23.8260 C   0  0  0  0  0  0  0  0  0  0  0  0
   38.0480   58.1030   22.9150 O   0  0  0  0  0  0  0  0  0  0  0  0
   44.1060   63.1700   24.9730 C   0  0  0  0  0  0  0  0  0  0  0  0
   44.7700   63.1770   26.0220 O   0  0  0  0  0  0  0  0  0  0  0  0
   46.8740   58.3920   25.5910 H   0  0  0  0  0  0  0  0  0  0  0  0
   47.9020   56.2650   25.0470 H   0  0  0  0  0  0  0  0  0  0  0  0
   47.8520   56.2640   25.0970 H   0  0  0  0  0  0  0  0  0  0  0  0
   47.3620   55.0090   23.0530 H   0  0  0  0  0  0  0  0  0  0  0  0
   45.6760   55.8900   21.4610 H   0  0  0  0  0  0  0  0  0  0  0  0
   45.7590   60.8610   25.1820 H   0  0  0  0  0  0  0  0  0  0  0  0
   44.0980   60.4230   25.5520 H   0  0  0  0  0  0  0  0  0  0  0  0
   45.1510   62.2830   23.5440 H   0  0  0  0  0  0  0  0  0  0  0  0
   43.3460   60.8880   21.2930 H   0  0  0  0  0  0  0  0  0  0  0  0
   42.9730   64.7510   22.6670 H   0  0  0  0  0  0  0  0  0  0  0  0
   41.5120   64.2520   23.6210 H   0  0  0  0  0  0  0  0  0  0  0  0
   43.7210   65.1600   26.3370 H   0  0  0  0  0  0  0  0  0  0  0  0
   42.0810   65.3570   25.7690 H   0  0  0  0  0  0  0  0  0  0  0  0
   43.3930   66.1660   24.9460 H   0  0  0  0  0  0  0  0  0  0  0  0
   41.1200   60.9670   24.0990 H   0  0  0  0  0  0  0  0  0  0  0  0
   39.8750   57.4220   20.9780 H   0  0  0  0  0  0  0  0  0  0  0  0
   42.0100   58.5220   20.8020 H   0  0  0  0  0  0  0  0  0  0  0  0
   36.5480   59.2330   24.0320 H   0  0  0  0  0  0  0  0  0  0  0  0
   37.4500   60.1020   23.7980 H   0  0  0  0  0  0  0  0  0  0  0  0
  1 30  1  0  0  0  0
  2 31  1  0  0  0  0
  4  5  1  0  0  0  0
  4  3  2  0  0  0  0
  5  6  1  0  0  0  0
  6  1  2  0  0  0  0
  7  6  1  0  0  0  0
  7 10  1  0  0  0  0
  8  7  2  0  0  0  0
  9  8  1  0  0  0  0
  9  5  2  0  0  0  0
 10 35  1  0  0  0  0
 10 36  1  0  0  0  0
 11 37  1  6  0  0  0
 11 10  1  0  0  0  0
 11 28  1  0  0  0  0
 12 11  1  0  0  0  0
 13 38  1  6  0  0  0
 13 19  1  0  0  0  0
 13  8  1  0  0  0  0
 13 12  1  0  0  0  0
 14 28  1  0  0  0  0
 14 17  1  0  0  0  0
 15 40  1  0  0  0  0
 15 14  1  0  0  0  0
 16 12  1  0  0  0  0
 16 15  1  0  0  0  0
 17 42  1  0  0  0  0
 17 41  1  0  0  0  0
 18 16  2  0  0  0  0
 19 20  1  0  0  0  0
 20 21  2  0  0  0  0
 20 44  1  0  0  0  0
 21 25  1  0  0  0  0
 22 27  1  0  0  0  0
 22 21  1  0  0  0  0
 23 22  2  0  0  0  0
 24 23  1  0  0  0  0
 24 19  2  0  0  0  0
 26 47  1  0  0  0  0
 27 26  1  0  0  0  0
 28 29  2  0  0  0  0
 33  3  1  0  0  0  0
 34  4  1  0  0  0  0
 39 15  1  0  0  0  0
 43 17  1  0  0  0  0
 45 23  1  0  0  0  0
 46 24  1  0  0  0  0
 48 26  1  0  0  0  0
M  END
>  <Pose>
1

>  <Score>
-4.07

$$$$

 OpenBabel10152117013D

 48 49  0  0  1  0  0  0  0  0999 V2000
   33.7290   64.7490   29.9430 C   0  0  0  0  0  0  0  0  0  0  0  0
   33.5320   65.9340   30.6320 C   0  0  0  0  0  0  0  0  0  0  0  0
   34.4270   66.4690   31.5970 C   0  0  0  0  0  0  0  0  0  0  0  0
   35.6170   65.7720   31.9090 C   0  0  0  0  0  0  0  0  0  0  0  0
   35.8200   64.5870   31.2230 C   0  0  0  0  0  0  0  0  0  0  0  0
   34.9210   64.0800   30.2730 C   0  0  0  0  0  0  0  0  0  0  0  0
   35.4930   62.8170   29.7840 C   0  0  0  0  0  0  0  0  0  0  0  0
   36.6590   62.6750   30.4630 C   0  0  0  0  0  0  0  0  0  0  0  0
   36.8510   63.6880   31.2880 N   0  0  0  0  0  0  0  0  0  0  0  0
   34.9620   61.8480   28.7650 C   0  0  0  0  0  0  0  0  0  0  0  0
   36.1050   61.0360   28.1410 C   0  0  1  0  0  0  0  0  0  0  0  0
   37.2150   60.7190   29.0460 N   0  0  0  0  0  0  0  0  0  0  0  0
   37.5240   61.4990   30.2320 C   0  0  2  0  0  0  0  0  0  0  0  0
   36.5370   58.9610   26.9360 N   0  0  0  0  0  0  0  0  0  0  0  0
   37.8180   58.8430   27.6330 C   0  0  0  0  0  0  0  0  0  0  0  0
   38.0480   59.6840   28.8070 C   0  0  0  0  0  0  0  0  0  0  0  0
   36.1380   57.9500   25.9740 C   0  0  0  0  0  0  0  0  0  0  0  0
   38.9830   59.3960   29.5110 O   0  0  0  0  0  0  0  0  0  0  0  0
   37.4290   60.6890   31.5720 C   0  0  0  0  0  0  0  0  0  0  0  0
   38.4440   60.7240   32.5140 C   0  0  0  0  0  0  0  0  0  0  0  0
   38.2990   59.9800   33.6870 C   0  0  0  0  0  0  0  0  0  0  0  0
   37.1940   59.2250   33.9250 C   0  0  0  0  0  0  0  0  0  0  0  0
   36.1580   59.1530   33.0230 C   0  0  0  0  0  0  0  0  0  0  0  0
   36.2920   59.8860   31.8640 C   0  0  0  0  0  0  0  0  0  0  0  0
   39.2030   59.9020   34.7170 O   0  0  0  0  0  0  0  0  0  0  0  0
   38.3870   59.2540   35.7360 C   0  0  0  0  0  0  0  0  0  0  0  0
   37.2830   58.5910   35.1300 O   0  0  0  0  0  0  0  0  0  0  0  0
   35.7190   59.9830   27.1510 C   0  0  0  0  0  0  0  0  0  0  0  0
   34.6230   60.1450   26.5890 O   0  0  0  0  0  0  0  0  0  0  0  0
   33.0590   64.3870   29.2470 H   0  0  0  0  0  0  0  0  0  0  0  0
   32.6710   66.4670   30.4300 H   0  0  0  0  0  0  0  0  0  0  0  0
   32.6340   66.4110   30.4520 H   0  0  0  0  0  0  0  0  0  0  0  0
   34.2100   67.3610   32.0680 H   0  0  0  0  0  0  0  0  0  0  0  0
   36.2920   66.1250   32.6040 H   0  0  0  0  0  0  0  0  0  0  0  0
   34.4560   62.3910   27.9950 H   0  0  0  0  0  0  0  0  0  0  0  0
   34.2870   61.1750   29.2510 H   0  0  0  0  0  0  0  0  0  0  0  0
   36.5530   61.7480   27.4800 H   0  0  0  0  0  0  0  0  0  0  0  0
   38.5250   61.8000   30.0060 H   0  0  0  0  0  0  0  0  0  0  0  0
   38.5860   59.0720   26.9240 H   0  0  0  0  0  0  0  0  0  0  0  0
   37.8180   57.8450   28.0180 H   0  0  0  0  0  0  0  0  0  0  0  0
   35.1800   58.2010   25.5690 H   0  0  0  0  0  0  0  0  0  0  0  0
   36.0820   56.9980   26.4590 H   0  0  0  0  0  0  0  0  0  0  0  0
   36.8590   57.9060   25.1840 H   0  0  0  0  0  0  0  0  0  0  0  0
   39.2930   61.2890   32.3520 H   0  0  0  0  0  0  0  0  0  0  0  0
   35.3200   58.5770   33.2050 H   0  0  0  0  0  0  0  0  0  0  0  0
   35.5270   59.8510   31.1720 H   0  0  0  0  0  0  0  0  0  0  0  0
   38.5810   59.2730   36.7500 H   0  0  0  0  0  0  0  0  0  0  0  0
   38.6160   60.2420   35.9230 H   0  0  0  0  0  0  0  0  0  0  0  0
  1  6  1  0  0  0  0
  3  4  2  0  0  0  0
  3 33  1  0  0  0  0
  4 34  1  0  0  0  0
  5  9  1  0  0  0  0
  5  4  1  0  0  0  0
  6  5  2  0  0  0  0
  7  6  1  0  0  0  0
  7  8  2  0  0  0  0
  8  9  1  0  0  0  0
 10 36  1  0  0  0  0
 10  7  1  0  0  0  0
 11 37  1  6  0  0  0
 11 10  1  0  0  0  0
 11 12  1  0  0  0  0
 12 13  1  0  0  0  0
 13 38  1  6  0  0  0
 13  8  1  0  0  0  0
 13 19  1  0  0  0  0
 14 28  1  0  0  0  0
 14 15  1  0  0  0  0
 15 40  1  0  0  0  0
 15 16  1  0  0  0  0
 16 12  1  0  0  0  0
 16 18  2  0  0  0  0
 17 42  1  0  0  0  0
 17 14  1  0  0  0  0
 19 24  2  0  0  0  0
 19 20  1  0  0  0  0
 20 21  2  0  0  0  0
 21 22  1  0  0  0  0
 21 25  1  0  0  0  0
 22 27  1  0  0  0  0
 23 45  1  0  0  0  0
 23 22  2  0  0  0  0
 24 23  1  0  0  0  0
 26 48  1  0  0  0  0
 26 47  1  0  0  0  0
 27 26  1  0  0  0  0
 28 11  1  0  0  0  0
 29 28  2  0  0  0  0
 30  1  1  0  0  0  0
 31  2  1  0  0  0  0
 35 10  1  0  0  0  0
 39 15  1  0  0  0  0
 41 17  1  0  0  0  0
 43 17  1  0  0  0  0
 44 20  1  0  0  0  0
 46 24  1  0  0  0  0
M  END
>  <Pose>
1

>  <Score>
-3.97

$$$$
