
 OpenBabel10152117013D

 48 49  0  0  1  0  0  0  0  0999 V2000
   32.6880   17.9760   14.8690 C   0  0  0  0  0  0  0  0  0  0  0  0
   32.1290   19.2360   15.0100 C   0  0  0  0  0  0  0  0  0  0  0  0
   32.8540   20.4090   15.3530 C   0  0  0  0  0  0  0  0  0  0  0  0
   34.2480   20.3300   15.5760 C   0  0  0  0  0  0  0  0  0  0  0  0
   34.8120   19.0740   15.4350 C   0  0  0  0  0  0  0  0  0  0  0  0
   34.0740   17.9300   15.0950 C   0  0  0  0  0  0  0  0  0  0  0  0
   35.0280   16.8120   15.0510 C   0  0  0  0  0  0  0  0  0  0  0  0
   36.2290   17.3650   15.3590 C   0  0  0  0  0  0  0  0  0  0  0  0
   36.1090   18.6610   15.5790 N   0  0  0  0  0  0  0  0  0  0  0  0
   34.7980   15.3590   14.7430 C   0  0  0  0  0  0  0  0  0  0  0  0
   36.0860   14.7030   14.2270 C   0  0  1  0  0  0  0  0  0  0  0  0
   37.3280   15.2100   14.8200 N   0  0  0  0  0  0  0  0  0  0  0  0
   37.4460   16.5300   15.4150 C   0  0  2  0  0  0  0  0  0  0  0  0
   37.1420   12.5220   13.9560 N   0  0  0  0  0  0  0  0  0  0  0  0
   38.4400   13.1350   14.2350 C   0  0  0  0  0  0  0  0  0  0  0  0
   38.4620   14.4770   14.8180 C   0  0  0  0  0  0  0  0  0  0  0  0
   37.0560   11.1000   13.6760 C   0  0  0  0  0  0  0  0  0  0  0  0
   39.5100   14.8580   15.2750 O   0  0  0  0  0  0  0  0  0  0  0  0
   37.8260   16.5120   16.9370 C   0  0  0  0  0  0  0  0  0  0  0  0
   36.9670   15.9930   17.8930 C   0  0  0  0  0  0  0  0  0  0  0  0
   37.3640   16.0060   19.2320 C   0  0  0  0  0  0  0  0  0  0  0  0
   38.5640   16.5150   19.6190 C   0  0  0  0  0  0  0  0  0  0  0  0
   39.4530   17.0450   18.7120 C   0  0  0  0  0  0  0  0  0  0  0  0
   39.0710   17.0330   17.3880 C   0  0  0  0  0  0  0  0  0  0  0  0
   36.6400   15.5360   20.2980 O   0  0  0  0  0  0  0  0  0  0  0  0
   37.6640   15.5440   21.3370 C   0  0  0  0  0  0  0  0  0  0  0  0
   38.7250   16.4190   20.9700 O   0  0  0  0  0  0  0  0  0  0  0  0
   36.0240   13.2370   13.9380 C   0  0  0  0  0  0  0  0  0  0  0  0
   34.8940   12.7790   13.7010 O   0  0  0  0  0  0  0  0  0  0  0  0
   32.1330   17.1430   14.6180 H   0  0  0  0  0  0  0  0  0  0  0  0
   31.1130   19.3300   14.8560 H   0  0  0  0  0  0  0  0  0  0  0  0
   31.1030   19.2840   14.9100 H   0  0  0  0  0  0  0  0  0  0  0  0
   32.3660   21.3150   15.4380 H   0  0  0  0  0  0  0  0  0  0  0  0
   34.8100   21.1580   15.8280 H   0  0  0  0  0  0  0  0  0  0  0  0
   34.0370   15.2750   13.9960 H   0  0  0  0  0  0  0  0  0  0  0  0
   34.4950   14.8620   15.6410 H   0  0  0  0  0  0  0  0  0  0  0  0
   36.1460   15.0810   13.2270 H   0  0  0  0  0  0  0  0  0  0  0  0
   38.2220   16.9440   14.8050 H   0  0  0  0  0  0  0  0  0  0  0  0
   38.9740   13.1830   13.3090 H   0  0  0  0  0  0  0  0  0  0  0  0
   38.8700   12.5120   14.9920 H   0  0  0  0  0  0  0  0  0  0  0  0
   36.0360   10.8330   13.4970 H   0  0  0  0  0  0  0  0  0  0  0  0
   37.4270   10.5490   14.5150 H   0  0  0  0  0  0  0  0  0  0  0  0
   37.6420   10.8710   12.8110 H   0  0  0  0  0  0  0  0  0  0  0  0
   36.0510   15.6040   17.6200 H   0  0  0  0  0  0  0  0  0  0  0  0
   40.3630   17.4320   19.0090 H   0  0  0  0  0  0  0  0  0  0  0  0
   39.7210   17.4220   16.6880 H   0  0  0  0  0  0  0  0  0  0  0  0
   37.6250   14.9950   22.2090 H   0  0  0  0  0  0  0  0  0  0  0  0
   37.3650   14.6070   21.0240 H   0  0  0  0  0  0  0  0  0  0  0  0
  1  6  1  0  0  0  0
  3 33  1  0  0  0  0
  3  4  2  0  0  0  0
  4 34  1  0  0  0  0
  5  4  1  0  0  0  0
  5  9  1  0  0  0  0
  6  5  2  0  0  0  0
  7  6  1  0  0  0  0
  7  8  2  0  0  0  0
  8 13  1  0  0  0  0
  8  9  1  0  0  0  0
 10  7  1  0  0  0  0
 10 36  1  0  0  0  0
 11 37  1  6  0  0  0
 11 10  1  0  0  0  0
 11 12  1  0  0  0  0
 12 13  1  0  0  0  0
 13 38  1  6  0  0  0
 13 19  1  0  0  0  0
 14 15  1  0  0  0  0
 15 16  1  0  0  0  0
 15 40  1  0  0  0  0
 16 12  1  0  0  0  0
 16 18  2  0  0  0  0
 17 14  1  0  0  0  0
 17 42  1  0  0  0  0
 19 24  2  0  0  0  0
 19 20  1  0  0  0  0
 20 21  2  0  0  0  0
 21 22  1  0  0  0  0
 21 25  1  0  0  0  0
 22 27  1  0  0  0  0
 23 45  1  0  0  0  0
 23 22  2  0  0  0  0
 24 23  1  0  0  0  0
 26 47  1  0  0  0  0
 27 26  1  0  0  0  0
 28 14  1  0  0  0  0
 28 11  1  0  0  0  0
 29 28  2  0  0  0  0
 30  1  1  0  0  0  0
 31  2  1  0  0  0  0
 35 10  1  0  0  0  0
 39 15  1  0  0  0  0
 41 17  1  0  0  0  0
 43 17  1  0  0  0  0
 44 20  1  0  0  0  0
 46 24  1  0  0  0  0
 48 26  1  0  0  0  0
M  END
>  <Pose>
3

>  <Score>
-4.17

$$$$

 OpenBabel10152117013D

 48 49  0  0  1  0  0  0  0  0999 V2000
   39.7480   16.3610   19.3500 C   0  0  0  0  0  0  0  0  0  0  0  0
   39.5980   16.1660   20.7140 C   0  0  0  0  0  0  0  0  0  0  0  0
   38.3820   15.7960   21.3500 C   0  0  0  0  0  0  0  0  0  0  0  0
   37.2170   15.6050   20.5730 C   0  0  0  0  0  0  0  0  0  0  0  0
   37.3600   15.7980   19.2100 C   0  0  0  0  0  0  0  0  0  0  0  0
   38.5720   16.1630   18.6050 C   0  0  0  0  0  0  0  0  0  0  0  0
   38.3070   16.2690   17.1630 C   0  0  0  0  0  0  0  0  0  0  0  0
   36.9920   15.9670   17.0260 C   0  0  0  0  0  0  0  0  0  0  0  0
   36.4460   15.6950   18.1970 N   0  0  0  0  0  0  0  0  0  0  0  0
   39.2340   16.6290   16.0360 C   0  0  0  0  0  0  0  0  0  0  0  0
   38.7280   16.0470   14.7100 C   0  0  1  0  0  0  0  0  0  0  0  0
   37.2690   15.9980   14.5640 N   0  0  0  0  0  0  0  0  0  0  0  0
   36.3550   15.9740   15.6930 C   0  0  2  0  0  0  0  0  0  0  0  0
   38.9290   16.3350   12.2970 N   0  0  0  0  0  0  0  0  0  0  0  0
   37.5240   15.9550   12.1520 C   0  0  0  0  0  0  0  0  0  0  0  0
   36.6830   15.9400   13.3490 C   0  0  0  0  0  0  0  0  0  0  0  0
   39.7160   16.6640   11.1230 C   0  0  0  0  0  0  0  0  0  0  0  0
   35.4910   15.8800   13.1790 O   0  0  0  0  0  0  0  0  0  0  0  0
   35.3740   17.1970   15.7460 C   0  0  0  0  0  0  0  0  0  0  0  0
   34.0380   17.0410   16.0790 C   0  0  0  0  0  0  0  0  0  0  0  0
   33.2160   18.1690   16.1090 C   0  0  0  0  0  0  0  0  0  0  0  0
   33.6910   19.4090   15.8180 C   0  0  0  0  0  0  0  0  0  0  0  0
   35.0080   19.6210   15.4790 C   0  0  0  0  0  0  0  0  0  0  0  0
   35.8260   18.5130   15.4500 C   0  0  0  0  0  0  0  0  0  0  0  0
   31.8790   18.1930   16.4160 O   0  0  0  0  0  0  0  0  0  0  0  0
   31.6690   19.6270   16.5720 C   0  0  0  0  0  0  0  0  0  0  0  0
   32.7040   20.3470   15.9120 O   0  0  0  0  0  0  0  0  0  0  0  0
   39.5190   16.3780   13.4840 C   0  0  0  0  0  0  0  0  0  0  0  0
   40.7070   16.6850   13.6750 O   0  0  0  0  0  0  0  0  0  0  0  0
   40.6460   16.6290   18.9180 H   0  0  0  0  0  0  0  0  0  0  0  0
   40.4290   16.2990   21.3100 H   0  0  0  0  0  0  0  0  0  0  0  0
   40.4320   16.3660   21.2880 H   0  0  0  0  0  0  0  0  0  0  0  0
   38.3510   15.6670   22.3730 H   0  0  0  0  0  0  0  0  0  0  0  0
   36.3140   15.3380   20.9970 H   0  0  0  0  0  0  0  0  0  0  0  0
   40.2080   16.2370   16.2430 H   0  0  0  0  0  0  0  0  0  0  0  0
   39.2730   17.6950   15.9510 H   0  0  0  0  0  0  0  0  0  0  0  0
   38.9760   15.0110   14.8090 H   0  0  0  0  0  0  0  0  0  0  0  0
   35.8480   15.0500   15.5070 H   0  0  0  0  0  0  0  0  0  0  0  0
   37.5030   14.9690   11.7380 H   0  0  0  0  0  0  0  0  0  0  0  0
   37.1030   16.7280   11.5430 H   0  0  0  0  0  0  0  0  0  0  0  0
   40.7130   16.9160   11.4210 H   0  0  0  0  0  0  0  0  0  0  0  0
   39.2740   17.4980   10.6190 H   0  0  0  0  0  0  0  0  0  0  0  0
   39.7430   15.8220   10.4630 H   0  0  0  0  0  0  0  0  0  0  0  0
   33.6580   16.1070   16.3010 H   0  0  0  0  0  0  0  0  0  0  0  0
   35.3650   20.5630   15.2580 H   0  0  0  0  0  0  0  0  0  0  0  0
   36.8190   18.6440   15.2010 H   0  0  0  0  0  0  0  0  0  0  0  0
   30.8840   20.0580   17.0850 H   0  0  0  0  0  0  0  0  0  0  0  0
   31.6180   19.0800   17.4450 H   0  0  0  0  0  0  0  0  0  0  0  0
  2 31  1  0  0  0  0
  3 33  1  0  0  0  0
  4 34  1  0  0  0  0
  4  3  2  0  0  0  0
  5  4  1  0  0  0  0
  6  5  1  0  0  0  0
  6  1  2  0  0  0  0
  7  6  1  0  0  0  0
  8  7  2  0  0  0  0
  8  9  1  0  0  0  0
  9  5  2  0  0  0  0
 10 35  1  0  0  0  0
 10  7  1  0  0  0  0
 11 37  1  1  0  0  0
 11 10  1  0  0  0  0
 12 11  1  0  0  0  0
 12 13  1  0  0  0  0
 13 38  1  6  0  0  0
 13 19  1  0  0  0  0
 13  8  1  0  0  0  0
 14 28  1  0  0  0  0
 15 14  1  0  0  0  0
 15 16  1  0  0  0  0
 16 12  1  0  0  0  0
 17 41  1  0  0  0  0
 17 14  1  0  0  0  0
 18 16  2  0  0  0  0
 19 20  1  0  0  0  0
 20 21  2  0  0  0  0
 20 44  1  0  0  0  0
 21 25  1  0  0  0  0
 22 27  1  0  0  0  0
 22 21  1  0  0  0  0
 23 22  2  0  0  0  0
 24 23  1  0  0  0  0
 24 19  2  0  0  0  0
 26 47  1  0  0  0  0
 26 48  1  0  0  0  0
 27 26  1  0  0  0  0
 28 29  2  0  0  0  0
 28 11  1  0  0  0  0
 30  1  1  0  0  0  0
 36 10  1  0  0  0  0
 39 15  1  0  0  0  0
 40 15  1  0  0  0  0
 42 17  1  0  0  0  0
 43 17  1  0  0  0  0
 45 23  1  0  0  0  0
 46 24  1  0  0  0  0
M  END
>  <Pose>
2

>  <Score>
-4.06

$$$$
