
 OpenBabel10152117223D

 32 34  0  0  0  0  0  0  0  0999 V2000
   81.9450   25.5960   -1.1090 C   0  0  0  0  0  0  0  0  0  0  0  0
   80.9530   24.8750   -1.7820 C   0  0  0  0  0  0  0  0  0  0  0  0
   80.9510   23.4890   -1.6930 C   0  0  0  0  0  0  0  0  0  0  0  0
   81.9300   22.8290   -0.9540 C   0  0  0  0  0  0  0  0  0  0  0  0
   82.9190   23.5370   -0.2820 C   0  0  0  0  0  0  0  0  0  0  0  0
   82.9250   24.9350   -0.3450 C   0  0  0  0  0  0  0  0  0  0  0  0
   83.9430   25.7050    0.3900 C   0  0  0  0  0  0  0  0  0  0  0  0
   84.8940   26.4250   -0.2390 C   0  0  0  0  0  0  0  0  0  0  0  0
   85.9050   27.1230    0.6000 C   0  0  0  0  0  0  0  0  0  0  0  0
   86.8230   27.7900    0.1280 O   0  0  0  0  0  0  0  0  0  0  0  0
   85.7750   26.9910    2.0560 C   0  0  0  0  0  0  0  0  0  0  0  0
   86.6820   27.6020    2.9310 C   0  0  0  0  0  0  0  0  0  0  0  0
   86.5340   27.4630    4.3090 C   0  0  0  0  0  0  0  0  0  0  0  0
   85.4730   26.7110    4.8030 C   0  0  0  0  0  0  0  0  0  0  0  0
   84.5660   26.0970    3.9430 C   0  0  0  0  0  0  0  0  0  0  0  0
   84.7220   26.2360    2.5640 C   0  0  0  0  0  0  0  0  0  0  0  0
   83.8070   25.6010    1.7640 O   0  0  0  0  0  0  0  0  0  0  0  0
   85.2870   26.5460    6.1440 O   0  0  0  0  0  0  0  0  0  0  0  0
   87.7430   28.3530    2.5000 O   0  0  0  0  0  0  0  0  0  0  0  0
   85.0010   26.5640   -1.6120 O   0  0  0  0  0  0  0  0  0  0  0  0
   81.9200   21.4660   -0.8760 O   0  0  0  0  0  0  0  0  0  0  0  0
   80.0030   22.7260   -2.3160 O   0  0  0  0  0  0  0  0  0  0  0  0
   81.9500   26.6830   -1.1850 H   0  0  0  0  0  0  0  0  0  0  0  0
   80.2050   25.4080   -2.3600 H   0  0  0  0  0  0  0  0  0  0  0  0
   83.6690   22.9960    0.2880 H   0  0  0  0  0  0  0  0  0  0  0  0
   87.2480   27.9440    4.9700 H   0  0  0  0  0  0  0  0  0  0  0  0
   83.7440   25.5130    4.3490 H   0  0  0  0  0  0  0  0  0  0  0  0
   84.7130   27.2600    6.4700 H   0  0  0  0  0  0  0  0  0  0  0  0
   88.3250   27.7760    1.9540 H   0  0  0  0  0  0  0  0  0  0  0  0
   85.5040   25.8140   -1.9710 H   0  0  0  0  0  0  0  0  0  0  0  0
   82.8560   21.2180   -0.7360 H   0  0  0  0  0  0  0  0  0  0  0  0
   79.4830   23.3020   -2.9030 H   0  0  0  0  0  0  0  0  0  0  0  0
  1  6  1  0  0  0  0
  2  3  1  0  0  0  0
  2  1  2  0  0  0  0
  3  4  2  0  0  0  0
  4 21  1  0  0  0  0
  4  5  1  0  0  0  0
  5 25  1  0  0  0  0
  6  5  2  0  0  0  0
  6  7  1  0  0  0  0
  7 17  1  0  0  0  0
  8  7  2  0  0  0  0
  8  9  1  0  0  0  0
  9 11  1  0  0  0  0
 10  9  2  0  0  0  0
 11 16  2  0  0  0  0
 11 12  1  0  0  0  0
 12 13  2  0  0  0  0
 13 14  1  0  0  0  0
 13 26  1  0  0  0  0
 14 18  1  0  0  0  0
 15 27  1  0  0  0  0
 15 14  2  0  0  0  0
 16 15  1  0  0  0  0
 17 16  1  0  0  0  0
 18 28  1  0  0  0  0
 19 12  1  0  0  0  0
 20  8  1  0  0  0  0
 21 31  1  0  0  0  0
 22  3  1  0  0  0  0
 23  1  1  0  0  0  0
 24  2  1  0  0  0  0
 29 19  1  0  0  0  0
 30 20  1  0  0  0  0
 32 22  1  0  0  0  0
M  END
>  <Pose>
3

>  <Score>
-5.56

$$$$

 OpenBabel10152117223D

 32 34  0  0  0  0  0  0  0  0999 V2000
   86.9900   27.3730    2.9890 C   0  0  0  0  0  0  0  0  0  0  0  0
   86.2240   26.7030    3.9490 C   0  0  0  0  0  0  0  0  0  0  0  0
   85.1950   27.3850    4.5850 C   0  0  0  0  0  0  0  0  0  0  0  0
   84.9380   28.7190    4.2760 C   0  0  0  0  0  0  0  0  0  0  0  0
   85.6920   29.3920    3.3250 C   0  0  0  0  0  0  0  0  0  0  0  0
   86.7220   28.7150    2.6610 C   0  0  0  0  0  0  0  0  0  0  0  0
   87.5090   29.4000    1.6210 C   0  0  0  0  0  0  0  0  0  0  0  0
   87.2120   29.2990    0.3100 C   0  0  0  0  0  0  0  0  0  0  0  0
   88.1040   29.9900   -0.6600 C   0  0  0  0  0  0  0  0  0  0  0  0
   87.9340   29.9470   -1.8760 O   0  0  0  0  0  0  0  0  0  0  0  0
   89.2330   30.7490   -0.1090 C   0  0  0  0  0  0  0  0  0  0  0  0
   90.1350   31.4270   -0.9390 C   0  0  0  0  0  0  0  0  0  0  0  0
   91.1960   32.1430   -0.3910 C   0  0  0  0  0  0  0  0  0  0  0  0
   91.3460   32.1770    0.9920 C   0  0  0  0  0  0  0  0  0  0  0  0
   90.4560   31.5070    1.8280 C   0  0  0  0  0  0  0  0  0  0  0  0
   89.3980   30.7880    1.2720 C   0  0  0  0  0  0  0  0  0  0  0  0
   88.5600   30.1370    2.1410 O   0  0  0  0  0  0  0  0  0  0  0  0
   92.3680   32.8650    1.5760 O   0  0  0  0  0  0  0  0  0  0  0  0
   90.0350   31.4270   -2.3050 O   0  0  0  0  0  0  0  0  0  0  0  0
   86.1350   28.5980   -0.2040 O   0  0  0  0  0  0  0  0  0  0  0  0
   83.9250   29.3800    4.9100 O   0  0  0  0  0  0  0  0  0  0  0  0
   84.4010   26.7850    5.5220 O   0  0  0  0  0  0  0  0  0  0  0  0
   87.8020   26.8390    2.4950 H   0  0  0  0  0  0  0  0  0  0  0  0
   86.4460   25.6670    4.1810 H   0  0  0  0  0  0  0  0  0  0  0  0
   85.4690   30.4320    3.1030 H   0  0  0  0  0  0  0  0  0  0  0  0
   91.8850   32.6600   -1.0510 H   0  0  0  0  0  0  0  0  0  0  0  0
   90.5910   31.5460    2.9060 H   0  0  0  0  0  0  0  0  0  0  0  0
   93.1120   32.2570    1.7220 H   0  0  0  0  0  0  0  0  0  0  0  0
   89.5720   30.6010   -2.5780 H   0  0  0  0  0  0  0  0  0  0  0  0
   85.4610   29.2280   -0.5090 H   0  0  0  0  0  0  0  0  0  0  0  0
   83.1530   29.2780    4.3180 H   0  0  0  0  0  0  0  0  0  0  0  0
   83.4730   26.9880    5.3140 H   0  0  0  0  0  0  0  0  0  0  0  0
  1  2  1  0  0  0  0
  2 24  1  0  0  0  0
  2  3  2  0  0  0  0
  3 22  1  0  0  0  0
  4  3  1  0  0  0  0
  4 21  1  0  0  0  0
  5  4  2  0  0  0  0
  6  1  2  0  0  0  0
  6  5  1  0  0  0  0
  7 17  1  0  0  0  0
  7  6  1  0  0  0  0
  8  7  2  0  0  0  0
  9 11  1  0  0  0  0
  9  8  1  0  0  0  0
 10  9  2  0  0  0  0
 11 16  1  0  0  0  0
 12 13  1  0  0  0  0
 12 11  2  0  0  0  0
 13 14  2  0  0  0  0
 14 18  1  0  0  0  0
 14 15  1  0  0  0  0
 15 27  1  0  0  0  0
 16 15  2  0  0  0  0
 16 17  1  0  0  0  0
 18 28  1  0  0  0  0
 19 12  1  0  0  0  0
 20  8  1  0  0  0  0
 23  1  1  0  0  0  0
 25  5  1  0  0  0  0
 26 13  1  0  0  0  0
 29 19  1  0  0  0  0
 30 20  1  0  0  0  0
 31 21  1  0  0  0  0
 32 22  1  0  0  0  0
M  END
>  <Pose>
1

>  <Score>
-5.35

$$$$

 OpenBabel10152117223D

 32 34  0  0  0  0  0  0  0  0999 V2000
   89.8860   31.2160   -0.2020 C   0  0  0  0  0  0  0  0  0  0  0  0
   90.6910   32.2790   -0.6260 C   0  0  0  0  0  0  0  0  0  0  0  0
   90.3110   33.5780   -0.3140 C   0  0  0  0  0  0  0  0  0  0  0  0
   89.1410   33.8160    0.4030 C   0  0  0  0  0  0  0  0  0  0  0  0
   88.3360   32.7680    0.8290 C   0  0  0  0  0  0  0  0  0  0  0  0
   88.7130   31.4510    0.5380 C   0  0  0  0  0  0  0  0  0  0  0  0
   87.8920   30.3240    1.0130 C   0  0  0  0  0  0  0  0  0  0  0  0
   87.2900   29.4650    0.1660 C   0  0  0  0  0  0  0  0  0  0  0  0
   86.4410   28.3920    0.7520 C   0  0  0  0  0  0  0  0  0  0  0  0
   85.8350   27.5700    0.0690 O   0  0  0  0  0  0  0  0  0  0  0  0
   86.3410   28.3390    2.2150 C   0  0  0  0  0  0  0  0  0  0  0  0
   85.5610   27.3730    2.8610 C   0  0  0  0  0  0  0  0  0  0  0  0
   85.4850   27.3430    4.2510 C   0  0  0  0  0  0  0  0  0  0  0  0
   86.1980   28.2850    4.9880 C   0  0  0  0  0  0  0  0  0  0  0  0
   86.9770   29.2510    4.3570 C   0  0  0  0  0  0  0  0  0  0  0  0
   87.0450   29.2780    2.9630 C   0  0  0  0  0  0  0  0  0  0  0  0
   87.8170   30.2580    2.3950 O   0  0  0  0  0  0  0  0  0  0  0  0
   86.1570   28.2950    6.3510 O   0  0  0  0  0  0  0  0  0  0  0  0
   84.8390   26.4240    2.1870 O   0  0  0  0  0  0  0  0  0  0  0  0
   87.4030   29.5060   -1.2130 O   0  0  0  0  0  0  0  0  0  0  0  0
   88.7760   35.0970    0.7020 O   0  0  0  0  0  0  0  0  0  0  0  0
   91.0590   34.6590   -0.6880 O   0  0  0  0  0  0  0  0  0  0  0  0
   90.1810   30.1980   -0.4540 H   0  0  0  0  0  0  0  0  0  0  0  0
   91.5940   32.0720   -1.1920 H   0  0  0  0  0  0  0  0  0  0  0  0
   87.4290   32.9830    1.3870 H   0  0  0  0  0  0  0  0  0  0  0  0
   84.8740   26.5870    4.7340 H   0  0  0  0  0  0  0  0  0  0  0  0
   87.5260   29.9780    4.9500 H   0  0  0  0  0  0  0  0  0  0  0  0
   85.2990   28.6560    6.6360 H   0  0  0  0  0  0  0  0  0  0  0  0
   83.9180   26.4340    2.5380 H   0  0  0  0  0  0  0  0  0  0  0  0
   86.5250   29.6570   -1.6010 H   0  0  0  0  0  0  0  0  0  0  0  0
   89.5030   35.4390    1.2610 H   0  0  0  0  0  0  0  0  0  0  0  0
   90.5190   35.4600   -0.5730 H   0  0  0  0  0  0  0  0  0  0  0  0
  1  6  1  0  0  0  0
  2  3  1  0  0  0  0
  2  1  2  0  0  0  0
  3  4  2  0  0  0  0
  4 21  1  0  0  0  0
  4  5  1  0  0  0  0
  5 25  1  0  0  0  0
  6  5  2  0  0  0  0
  6  7  1  0  0  0  0
  7 17  1  0  0  0  0
  8  9  1  0  0  0  0
  8  7  2  0  0  0  0
  9 11  1  0  0  0  0
 10  9  2  0  0  0  0
 11 12  2  0  0  0  0
 11 16  1  0  0  0  0
 12 13  1  0  0  0  0
 13 26  1  0  0  0  0
 13 14  2  0  0  0  0
 14 18  1  0  0  0  0
 15 27  1  0  0  0  0
 15 14  1  0  0  0  0
 16 15  2  0  0  0  0
 17 16  1  0  0  0  0
 18 28  1  0  0  0  0
 19 29  1  0  0  0  0
 19 12  1  0  0  0  0
 20  8  1  0  0  0  0
 21 31  1  0  0  0  0
 22 32  1  0  0  0  0
 22  3  1  0  0  0  0
 23  1  1  0  0  0  0
 24  2  1  0  0  0  0
 30 20  1  0  0  0  0
M  END
>  <Pose>
1

>  <Score>
-5.12

$$$$
