
 OpenBabel10152117223D

 32 34  0  0  0  0  0  0  0  0999 V2000
   82.7450   19.2790   -0.1870 C   0  0  0  0  0  0  0  0  0  0  0  0
   82.8760   18.2490    0.7500 C   0  0  0  0  0  0  0  0  0  0  0  0
   81.9600   18.1650    1.7900 C   0  0  0  0  0  0  0  0  0  0  0  0
   80.9330   19.0990    1.9020 C   0  0  0  0  0  0  0  0  0  0  0  0
   80.7940   20.1250    0.9770 C   0  0  0  0  0  0  0  0  0  0  0  0
   81.6970   20.2150   -0.0890 C   0  0  0  0  0  0  0  0  0  0  0  0
   81.5450   21.2730   -1.1020 C   0  0  0  0  0  0  0  0  0  0  0  0
   81.8280   22.5650   -0.8410 C   0  0  0  0  0  0  0  0  0  0  0  0
   81.5880   23.5610   -1.9210 C   0  0  0  0  0  0  0  0  0  0  0  0
   81.7960   24.7640   -1.7810 O   0  0  0  0  0  0  0  0  0  0  0  0
   81.0790   23.0530   -3.2000 C   0  0  0  0  0  0  0  0  0  0  0  0
   80.8130   23.9100   -4.2750 C   0  0  0  0  0  0  0  0  0  0  0  0
   80.3340   23.4020   -5.4790 C   0  0  0  0  0  0  0  0  0  0  0  0
   80.1250   22.0320   -5.6000 C   0  0  0  0  0  0  0  0  0  0  0  0
   80.3840   21.1690   -4.5390 C   0  0  0  0  0  0  0  0  0  0  0  0
   80.8610   21.6850   -3.3330 C   0  0  0  0  0  0  0  0  0  0  0  0
   81.0870   20.7920   -2.3180 O   0  0  0  0  0  0  0  0  0  0  0  0
   79.6570   21.4870   -6.7600 O   0  0  0  0  0  0  0  0  0  0  0  0
   81.0010   25.2660   -4.2120 O   0  0  0  0  0  0  0  0  0  0  0  0
   82.3270   23.0370    0.3600 O   0  0  0  0  0  0  0  0  0  0  0  0
   80.0400   19.0080    2.9310 O   0  0  0  0  0  0  0  0  0  0  0  0
   82.0250   17.1760    2.7320 O   0  0  0  0  0  0  0  0  0  0  0  0
   83.4670   19.3490   -1.0000 H   0  0  0  0  0  0  0  0  0  0  0  0
   83.6880   17.5370    0.6500 H   0  0  0  0  0  0  0  0  0  0  0  0
   79.9830   20.8390    1.0880 H   0  0  0  0  0  0  0  0  0  0  0  0
   80.1320   24.0830   -6.3000 H   0  0  0  0  0  0  0  0  0  0  0  0
   80.2140   20.1020   -4.6530 H   0  0  0  0  0  0  0  0  0  0  0  0
   80.1480   20.6680   -6.9420 H   0  0  0  0  0  0  0  0  0  0  0  0
   80.4150   25.6860   -4.8840 H   0  0  0  0  0  0  0  0  0  0  0  0
   81.7410   23.7350    0.6980 H   0  0  0  0  0  0  0  0  0  0  0  0
   79.3140   18.4530    2.5820 H   0  0  0  0  0  0  0  0  0  0  0  0
   81.1740   16.7050    2.7420 H   0  0  0  0  0  0  0  0  0  0  0  0
  1  6  2  0  0  0  0
  1  2  1  0  0  0  0
  2  3  2  0  0  0  0
  3  4  1  0  0  0  0
  3 22  1  0  0  0  0
  4 21  1  0  0  0  0
  5 25  1  0  0  0  0
  5  4  2  0  0  0  0
  6  5  1  0  0  0  0
  7  8  2  0  0  0  0
  7  6  1  0  0  0  0
  8 20  1  0  0  0  0
  9 10  2  0  0  0  0
  9  8  1  0  0  0  0
 11  9  1  0  0  0  0
 12 19  1  0  0  0  0
 12 11  2  0  0  0  0
 13 12  1  0  0  0  0
 14 13  2  0  0  0  0
 14 15  1  0  0  0  0
 15 16  2  0  0  0  0
 16 11  1  0  0  0  0
 16 17  1  0  0  0  0
 17  7  1  0  0  0  0
 18 14  1  0  0  0  0
 20 30  1  0  0  0  0
 22 32  1  0  0  0  0
 23  1  1  0  0  0  0
 24  2  1  0  0  0  0
 26 13  1  0  0  0  0
 27 15  1  0  0  0  0
 28 18  1  0  0  0  0
 29 19  1  0  0  0  0
 31 21  1  0  0  0  0
M  END
>  <Pose>
4

>  <Score>
-6.33

$$$$

 OpenBabel10152117223D

 32 34  0  0  0  0  0  0  0  0999 V2000
   80.1980   23.7910   -3.4580 C   0  0  0  0  0  0  0  0  0  0  0  0
   80.4380   23.8730   -4.8340 C   0  0  0  0  0  0  0  0  0  0  0  0
   80.5430   22.7010   -5.5700 C   0  0  0  0  0  0  0  0  0  0  0  0
   80.4210   21.4620   -4.9440 C   0  0  0  0  0  0  0  0  0  0  0  0
   80.1830   21.3710   -3.5780 C   0  0  0  0  0  0  0  0  0  0  0  0
   80.0550   22.5430   -2.8240 C   0  0  0  0  0  0  0  0  0  0  0  0
   79.7650   22.4680   -1.3820 C   0  0  0  0  0  0  0  0  0  0  0  0
   80.6160   21.8980   -0.5050 C   0  0  0  0  0  0  0  0  0  0  0  0
   80.2010   21.8290    0.9220 C   0  0  0  0  0  0  0  0  0  0  0  0
   80.8930   21.3150    1.7970 O   0  0  0  0  0  0  0  0  0  0  0  0
   78.8980   22.4070    1.2700 C   0  0  0  0  0  0  0  0  0  0  0  0
   78.4140   22.3840    2.5830 C   0  0  0  0  0  0  0  0  0  0  0  0
   77.1750   22.9430    2.8870 C   0  0  0  0  0  0  0  0  0  0  0  0
   76.4280   23.5270    1.8690 C   0  0  0  0  0  0  0  0  0  0  0  0
   76.8990   23.5560    0.5590 C   0  0  0  0  0  0  0  0  0  0  0  0
   78.1380   22.9900    0.2600 C   0  0  0  0  0  0  0  0  0  0  0  0
   78.5470   23.0350   -1.0480 O   0  0  0  0  0  0  0  0  0  0  0  0
   75.2100   24.0890    2.1170 O   0  0  0  0  0  0  0  0  0  0  0  0
   79.1050   21.8240    3.6240 O   0  0  0  0  0  0  0  0  0  0  0  0
   81.8530   21.3710   -0.8340 O   0  0  0  0  0  0  0  0  0  0  0  0
   80.5290   20.3160   -5.6770 O   0  0  0  0  0  0  0  0  0  0  0  0
   80.7640   22.7110   -6.9190 O   0  0  0  0  0  0  0  0  0  0  0  0
   80.1220   24.7120   -2.8800 H   0  0  0  0  0  0  0  0  0  0  0  0
   80.5390   24.8470   -5.3010 H   0  0  0  0  0  0  0  0  0  0  0  0
   80.0910   20.3920   -3.1160 H   0  0  0  0  0  0  0  0  0  0  0  0
   76.8160   22.9140    3.9110 H   0  0  0  0  0  0  0  0  0  0  0  0
   76.3000   24.0160   -0.2230 H   0  0  0  0  0  0  0  0  0  0  0  0
   74.5490   23.6710    1.5400 H   0  0  0  0  0  0  0  0  0  0  0  0
   79.1110   20.8460    3.4960 H   0  0  0  0  0  0  0  0  0  0  0  0
   82.2230   21.8690   -1.5820 H   0  0  0  0  0  0  0  0  0  0  0  0
   80.9430   20.5960   -6.5180 H   0  0  0  0  0  0  0  0  0  0  0  0
   81.0070   21.8110   -7.1970 H   0  0  0  0  0  0  0  0  0  0  0  0
  1 23  1  0  0  0  0
  1  6  1  0  0  0  0
  2  1  2  0  0  0  0
  3  4  2  0  0  0  0
  3  2  1  0  0  0  0
  4  5  1  0  0  0  0
  5 25  1  0  0  0  0
  5  6  2  0  0  0  0
  6  7  1  0  0  0  0
  7 17  1  0  0  0  0
  7  8  2  0  0  0  0
  8  9  1  0  0  0  0
  9 11  1  0  0  0  0
  9 10  2  0  0  0  0
 11 12  1  0  0  0  0
 12 13  2  0  0  0  0
 12 19  1  0  0  0  0
 13 26  1  0  0  0  0
 14 18  1  0  0  0  0
 14 13  1  0  0  0  0
 15 14  2  0  0  0  0
 16 15  1  0  0  0  0
 16 11  2  0  0  0  0
 17 16  1  0  0  0  0
 20  8  1  0  0  0  0
 21  4  1  0  0  0  0
 22  3  1  0  0  0  0
 24  2  1  0  0  0  0
 27 15  1  0  0  0  0
 28 18  1  0  0  0  0
 29 19  1  0  0  0  0
 30 20  1  0  0  0  0
 31 21  1  0  0  0  0
 32 22  1  0  0  0  0
M  END
>  <Pose>
1

>  <Score>
-5.95

$$$$
