
 OpenBabel10152117223D

 32 34  0  0  0  0  0  0  0  0999 V2000
   69.2490   44.8880   -7.0830 C   0  0  0  0  0  0  0  0  0  0  0  0
   70.5590   45.2830   -6.7960 C   0  0  0  0  0  0  0  0  0  0  0  0
   71.6110   44.4700   -7.1950 C   0  0  0  0  0  0  0  0  0  0  0  0
   71.3620   43.2740   -7.8630 C   0  0  0  0  0  0  0  0  0  0  0  0
   70.0640   42.8720   -8.1530 C   0  0  0  0  0  0  0  0  0  0  0  0
   68.9920   43.6880   -7.7740 C   0  0  0  0  0  0  0  0  0  0  0  0
   67.6110   43.2990   -8.1050 C   0  0  0  0  0  0  0  0  0  0  0  0
   66.7110   42.9660   -7.1580 C   0  0  0  0  0  0  0  0  0  0  0  0
   65.3580   42.5380   -7.6060 C   0  0  0  0  0  0  0  0  0  0  0  0
   64.4710   42.1970   -6.8260 O   0  0  0  0  0  0  0  0  0  0  0  0
   65.1010   42.5290   -9.0500 C   0  0  0  0  0  0  0  0  0  0  0  0
   63.8630   42.1340   -9.5720 C   0  0  0  0  0  0  0  0  0  0  0  0
   63.6450   42.1380  -10.9470 C   0  0  0  0  0  0  0  0  0  0  0  0
   64.6720   42.5430  -11.7950 C   0  0  0  0  0  0  0  0  0  0  0  0
   65.9070   42.9380  -11.2880 C   0  0  0  0  0  0  0  0  0  0  0  0
   66.1210   42.9270   -9.9090 C   0  0  0  0  0  0  0  0  0  0  0  0
   67.3600   43.3140   -9.4670 O   0  0  0  0  0  0  0  0  0  0  0  0
   64.5050   42.5650  -13.1480 O   0  0  0  0  0  0  0  0  0  0  0  0
   62.8180   41.7260   -8.7860 O   0  0  0  0  0  0  0  0  0  0  0  0
   66.9510   42.9950   -5.7950 O   0  0  0  0  0  0  0  0  0  0  0  0
   72.4040   42.4810   -8.2500 O   0  0  0  0  0  0  0  0  0  0  0  0
   72.9150   44.8050   -6.9570 O   0  0  0  0  0  0  0  0  0  0  0  0
   68.4230   45.5220   -6.7620 H   0  0  0  0  0  0  0  0  0  0  0  0
   70.7320   46.2150   -6.2660 H   0  0  0  0  0  0  0  0  0  0  0  0
   69.8990   41.9340   -8.6770 H   0  0  0  0  0  0  0  0  0  0  0  0
   62.6790   41.8260  -11.3320 H   0  0  0  0  0  0  0  0  0  0  0  0
   66.6970   43.2500  -11.9660 H   0  0  0  0  0  0  0  0  0  0  0  0
   63.9330   41.8220  -13.4050 H   0  0  0  0  0  0  0  0  0  0  0  0
   63.1710   41.5260   -7.8880 H   0  0  0  0  0  0  0  0  0  0  0  0
   66.1820   43.3820   -5.3440 H   0  0  0  0  0  0  0  0  0  0  0  0
   73.2010   43.0290   -8.1040 H   0  0  0  0  0  0  0  0  0  0  0  0
   73.2750   44.1860   -6.2990 H   0  0  0  0  0  0  0  0  0  0  0  0
  1  2  1  0  0  0  0
  1 23  1  0  0  0  0
  2 24  1  0  0  0  0
  3 22  1  0  0  0  0
  3  2  2  0  0  0  0
  4  3  1  0  0  0  0
  5  4  2  0  0  0  0
  5  6  1  0  0  0  0
  6  1  2  0  0  0  0
  7  6  1  0  0  0  0
  7  8  2  0  0  0  0
  8 20  1  0  0  0  0
  9  8  1  0  0  0  0
  9 10  2  0  0  0  0
 11  9  1  0  0  0  0
 12 11  1  0  0  0  0
 12 19  1  0  0  0  0
 13 12  2  0  0  0  0
 14 15  2  0  0  0  0
 14 13  1  0  0  0  0
 15 16  1  0  0  0  0
 16 17  1  0  0  0  0
 16 11  2  0  0  0  0
 17  7  1  0  0  0  0
 18 14  1  0  0  0  0
 19 29  1  0  0  0  0
 20 30  1  0  0  0  0
 21 31  1  0  0  0  0
 21  4  1  0  0  0  0
 22 32  1  0  0  0  0
 25  5  1  0  0  0  0
 26 13  1  0  0  0  0
 27 15  1  0  0  0  0
 28 18  1  0  0  0  0
M  END
>  <Pose>
1

>  <Score>
-5.13

$$$$

 OpenBabel10152117223D

 32 34  0  0  0  0  0  0  0  0999 V2000
   70.3430   46.0160   -6.1490 C   0  0  0  0  0  0  0  0  0  0  0  0
   69.8100   46.6470   -5.0210 C   0  0  0  0  0  0  0  0  0  0  0  0
   68.5590   46.2590   -4.5590 C   0  0  0  0  0  0  0  0  0  0  0  0
   67.8440   45.2610   -5.2180 C   0  0  0  0  0  0  0  0  0  0  0  0
   68.3660   44.6280   -6.3390 C   0  0  0  0  0  0  0  0  0  0  0  0
   69.6330   44.9940   -6.8070 C   0  0  0  0  0  0  0  0  0  0  0  0
   70.2190   44.3090   -7.9710 C   0  0  0  0  0  0  0  0  0  0  0  0
   71.4650   43.7920   -7.9500 C   0  0  0  0  0  0  0  0  0  0  0  0
   71.9780   43.1660   -9.1980 C   0  0  0  0  0  0  0  0  0  0  0  0
   73.1040   42.6820   -9.2910 O   0  0  0  0  0  0  0  0  0  0  0  0
   71.0770   43.1410  -10.3560 C   0  0  0  0  0  0  0  0  0  0  0  0
   71.4700   42.5820  -11.5780 C   0  0  0  0  0  0  0  0  0  0  0  0
   70.5940   42.5680  -12.6610 C   0  0  0  0  0  0  0  0  0  0  0  0
   69.3230   43.1150  -12.5100 C   0  0  0  0  0  0  0  0  0  0  0  0
   68.9210   43.6740  -11.2990 C   0  0  0  0  0  0  0  0  0  0  0  0
   69.8050   43.6880  -10.2200 C   0  0  0  0  0  0  0  0  0  0  0  0
   69.3610   44.2620   -9.0570 O   0  0  0  0  0  0  0  0  0  0  0  0
   68.4300   43.1240  -13.5400 O   0  0  0  0  0  0  0  0  0  0  0  0
   72.7070   42.0310  -11.7830 O   0  0  0  0  0  0  0  0  0  0  0  0
   72.3040   43.7990   -6.8490 O   0  0  0  0  0  0  0  0  0  0  0  0
   66.6140   44.8890   -4.7570 O   0  0  0  0  0  0  0  0  0  0  0  0
   67.9870   46.8280   -3.4560 O   0  0  0  0  0  0  0  0  0  0  0  0
   71.3220   46.3260   -6.5150 H   0  0  0  0  0  0  0  0  0  0  0  0
   70.3790   47.4290   -4.5270 H   0  0  0  0  0  0  0  0  0  0  0  0
   67.7860   43.8520   -6.8320 H   0  0  0  0  0  0  0  0  0  0  0  0
   70.9180   42.1320  -13.6000 H   0  0  0  0  0  0  0  0  0  0  0  0
   67.9240   44.0960  -11.2020 H   0  0  0  0  0  0  0  0  0  0  0  0
   68.6190   43.8880  -14.1120 H   0  0  0  0  0  0  0  0  0  0  0  0
   72.8600   41.3550  -11.0830 H   0  0  0  0  0  0  0  0  0  0  0  0
   71.7890   44.0230   -6.0560 H   0  0  0  0  0  0  0  0  0  0  0  0
   66.7830   44.0940   -4.2120 H   0  0  0  0  0  0  0  0  0  0  0  0
   68.6430   46.8320   -2.7370 H   0  0  0  0  0  0  0  0  0  0  0  0
  1  2  1  0  0  0  0
  2  3  2  0  0  0  0
  2 24  1  0  0  0  0
  3 22  1  0  0  0  0
  4 21  1  0  0  0  0
  4  3  1  0  0  0  0
  5  4  2  0  0  0  0
  6  5  1  0  0  0  0
  6  1  2  0  0  0  0
  7  8  2  0  0  0  0
  7  6  1  0  0  0  0
  8 20  1  0  0  0  0
  9  8  1  0  0  0  0
 10  9  2  0  0  0  0
 11 16  1  0  0  0  0
 11  9  1  0  0  0  0
 12 11  2  0  0  0  0
 13 14  2  0  0  0  0
 13 12  1  0  0  0  0
 14 15  1  0  0  0  0
 15 27  1  0  0  0  0
 15 16  2  0  0  0  0
 16 17  1  0  0  0  0
 17  7  1  0  0  0  0
 18 14  1  0  0  0  0
 19 12  1  0  0  0  0
 19 29  1  0  0  0  0
 20 30  1  0  0  0  0
 21 31  1  0  0  0  0
 22 32  1  0  0  0  0
 23  1  1  0  0  0  0
 25  5  1  0  0  0  0
 26 13  1  0  0  0  0
 28 18  1  0  0  0  0
M  END
>  <Pose>
2

>  <Score>
-5.09

$$$$

 OpenBabel10152117223D

 32 34  0  0  0  0  0  0  0  0999 V2000
   67.8710   48.0710   -5.6400 C   0  0  0  0  0  0  0  0  0  0  0  0
   66.9640   48.8410   -4.9040 C   0  0  0  0  0  0  0  0  0  0  0  0
   66.1670   48.2190   -3.9540 C   0  0  0  0  0  0  0  0  0  0  0  0
   66.2630   46.8450   -3.7440 C   0  0  0  0  0  0  0  0  0  0  0  0
   67.1600   46.0710   -4.4690 C   0  0  0  0  0  0  0  0  0  0  0  0
   67.9850   46.6850   -5.4190 C   0  0  0  0  0  0  0  0  0  0  0  0
   68.9690   45.8880   -6.1710 C   0  0  0  0  0  0  0  0  0  0  0  0
   70.2530   45.7700   -5.7750 C   0  0  0  0  0  0  0  0  0  0  0  0
   71.1750   44.9830   -6.6370 C   0  0  0  0  0  0  0  0  0  0  0  0
   72.3670   44.8290   -6.3770 O   0  0  0  0  0  0  0  0  0  0  0  0
   70.6090   44.3770   -7.8470 C   0  0  0  0  0  0  0  0  0  0  0  0
   71.3980   43.6250   -8.7280 C   0  0  0  0  0  0  0  0  0  0  0  0
   70.8350   43.0580   -9.8680 C   0  0  0  0  0  0  0  0  0  0  0  0
   69.4790   43.2450  -10.1180 C   0  0  0  0  0  0  0  0  0  0  0  0
   68.6850   43.9910   -9.2510 C   0  0  0  0  0  0  0  0  0  0  0  0
   69.2560   44.5610   -8.1130 C   0  0  0  0  0  0  0  0  0  0  0  0
   68.4300   45.2950   -7.3010 O   0  0  0  0  0  0  0  0  0  0  0  0
   68.8820   42.7090  -11.2210 O   0  0  0  0  0  0  0  0  0  0  0  0
   72.7360   43.4090   -8.5310 O   0  0  0  0  0  0  0  0  0  0  0  0
   70.7770   46.3270   -4.6220 O   0  0  0  0  0  0  0  0  0  0  0  0
   65.4710   46.2430   -2.8080 O   0  0  0  0  0  0  0  0  0  0  0  0
   65.2700   48.9160   -3.1940 O   0  0  0  0  0  0  0  0  0  0  0  0
   68.4910   48.5590   -6.3900 H   0  0  0  0  0  0  0  0  0  0  0  0
   66.8990   49.9090   -5.0890 H   0  0  0  0  0  0  0  0  0  0  0  0
   67.2140   45.0020   -4.2840 H   0  0  0  0  0  0  0  0  0  0  0  0
   71.4630   42.4800  -10.5390 H   0  0  0  0  0  0  0  0  0  0  0  0
   67.6280   44.1270   -9.4650 H   0  0  0  0  0  0  0  0  0  0  0  0
   68.7840   41.7510  -11.0890 H   0  0  0  0  0  0  0  0  0  0  0  0
   73.0000   43.8640   -7.6980 H   0  0  0  0  0  0  0  0  0  0  0  0
   71.5610   45.8200   -4.3500 H   0  0  0  0  0  0  0  0  0  0  0  0
   65.3320   45.3360   -3.1470 H   0  0  0  0  0  0  0  0  0  0  0  0
   64.7820   48.2850   -2.6370 H   0  0  0  0  0  0  0  0  0  0  0  0
  1  6  2  0  0  0  0
  1  2  1  0  0  0  0
  2  3  2  0  0  0  0
  3  4  1  0  0  0  0
  3 22  1  0  0  0  0
  4 21  1  0  0  0  0
  5 25  1  0  0  0  0
  5  4  2  0  0  0  0
  6  5  1  0  0  0  0
  7  8  2  0  0  0  0
  7  6  1  0  0  0  0
  8 20  1  0  0  0  0
  9 10  2  0  0  0  0
  9  8  1  0  0  0  0
 11  9  1  0  0  0  0
 12 19  1  0  0  0  0
 12 11  2  0  0  0  0
 13 12  1  0  0  0  0
 14 13  2  0  0  0  0
 14 15  1  0  0  0  0
 15 16  2  0  0  0  0
 16 11  1  0  0  0  0
 16 17  1  0  0  0  0
 17  7  1  0  0  0  0
 18 28  1  0  0  0  0
 18 14  1  0  0  0  0
 19 29  1  0  0  0  0
 20 30  1  0  0  0  0
 22 32  1  0  0  0  0
 23  1  1  0  0  0  0
 24  2  1  0  0  0  0
 26 13  1  0  0  0  0
 27 15  1  0  0  0  0
 31 21  1  0  0  0  0
M  END
>  <Pose>
1

>  <Score>
-4.99

$$$$

 OpenBabel10152117223D

 32 34  0  0  0  0  0  0  0  0999 V2000
   69.2910   45.1210   -7.0810 C   0  0  0  0  0  0  0  0  0  0  0  0
   70.6150   44.8930   -6.6920 C   0  0  0  0  0  0  0  0  0  0  0  0
   71.3880   44.0000   -7.4220 C   0  0  0  0  0  0  0  0  0  0  0  0
   70.8470   43.3330   -8.5190 C   0  0  0  0  0  0  0  0  0  0  0  0
   69.5330   43.5520   -8.9130 C   0  0  0  0  0  0  0  0  0  0  0  0
   68.7450   44.4640   -8.2000 C   0  0  0  0  0  0  0  0  0  0  0  0
   67.3620   44.7380   -8.6250 C   0  0  0  0  0  0  0  0  0  0  0  0
   66.9580   45.9650   -9.0110 C   0  0  0  0  0  0  0  0  0  0  0  0
   65.5250   46.1430   -9.3720 C   0  0  0  0  0  0  0  0  0  0  0  0
   65.0510   47.2230   -9.7190 O   0  0  0  0  0  0  0  0  0  0  0  0
   64.6630   44.9590   -9.2970 C   0  0  0  0  0  0  0  0  0  0  0  0
   63.2990   45.0250   -9.6070 C   0  0  0  0  0  0  0  0  0  0  0  0
   62.5030   43.8850   -9.5320 C   0  0  0  0  0  0  0  0  0  0  0  0
   63.0820   42.6790   -9.1470 C   0  0  0  0  0  0  0  0  0  0  0  0
   64.4370   42.6010   -8.8350 C   0  0  0  0  0  0  0  0  0  0  0  0
   65.2280   43.7480   -8.9090 C   0  0  0  0  0  0  0  0  0  0  0  0
   66.5520   43.6150   -8.5790 O   0  0  0  0  0  0  0  0  0  0  0  0
   62.3440   41.5360   -9.0590 O   0  0  0  0  0  0  0  0  0  0  0  0
   62.6770   46.1830   -9.9910 O   0  0  0  0  0  0  0  0  0  0  0  0
   67.7800   47.0750   -9.1000 O   0  0  0  0  0  0  0  0  0  0  0  0
   71.6150   42.4550   -9.2270 O   0  0  0  0  0  0  0  0  0  0  0  0
   72.6910   43.7420   -7.1020 O   0  0  0  0  0  0  0  0  0  0  0  0
   68.6830   45.8160   -6.5040 H   0  0  0  0  0  0  0  0  0  0  0  0
   71.0150   45.4160   -5.8290 H   0  0  0  0  0  0  0  0  0  0  0  0
   69.1380   43.0200   -9.7740 H   0  0  0  0  0  0  0  0  0  0  0  0
   61.4470   43.9570   -9.7740 H   0  0  0  0  0  0  0  0  0  0  0  0
   64.8700   41.6500   -8.5360 H   0  0  0  0  0  0  0  0  0  0  0  0
   61.9080   41.5110   -8.1900 H   0  0  0  0  0  0  0  0  0  0  0  0
   62.0710   46.4600   -9.2650 H   0  0  0  0  0  0  0  0  0  0  0  0
   68.3980   47.0750   -8.3500 H   0  0  0  0  0  0  0  0  0  0  0  0
   70.9840   41.7870   -9.5630 H   0  0  0  0  0  0  0  0  0  0  0  0
   72.7950   43.8320   -6.1380 H   0  0  0  0  0  0  0  0  0  0  0  0
  1  2  1  0  0  0  0
  1 23  1  0  0  0  0
  2 24  1  0  0  0  0
  3 22  1  0  0  0  0
  3  2  2  0  0  0  0
  4  3  1  0  0  0  0
  5  4  2  0  0  0  0
  5  6  1  0  0  0  0
  6  1  2  0  0  0  0
  7 17  1  0  0  0  0
  7  6  1  0  0  0  0
  8  7  2  0  0  0  0
  9 11  1  0  0  0  0
  9  8  1  0  0  0  0
 10  9  2  0  0  0  0
 11 16  1  0  0  0  0
 12 13  1  0  0  0  0
 12 11  2  0  0  0  0
 13 14  2  0  0  0  0
 14 18  1  0  0  0  0
 14 15  1  0  0  0  0
 15 27  1  0  0  0  0
 16 15  2  0  0  0  0
 16 17  1  0  0  0  0
 18 28  1  0  0  0  0
 19 12  1  0  0  0  0
 19 29  1  0  0  0  0
 20  8  1  0  0  0  0
 20 30  1  0  0  0  0
 21  4  1  0  0  0  0
 22 32  1  0  0  0  0
 25  5  1  0  0  0  0
 26 13  1  0  0  0  0
 31 21  1  0  0  0  0
M  END
>  <Pose>
1

>  <Score>
-4.83

$$$$
