
 OpenBabel10152117223D

 32 34  0  0  0  0  0  0  0  0999 V2000
   58.6240   37.3360   -7.1440 C   0  0  0  0  0  0  0  0  0  0  0  0
   59.9770   37.6030   -6.9110 C   0  0  0  0  0  0  0  0  0  0  0  0
   60.7540   36.6430   -6.2760 C   0  0  0  0  0  0  0  0  0  0  0  0
   60.1880   35.4370   -5.8700 C   0  0  0  0  0  0  0  0  0  0  0  0
   58.8460   35.1620   -6.0970 C   0  0  0  0  0  0  0  0  0  0  0  0
   58.0520   36.1110   -6.7520 C   0  0  0  0  0  0  0  0  0  0  0  0
   56.6360   35.8230   -7.0360 C   0  0  0  0  0  0  0  0  0  0  0  0
   56.2480   35.1200   -8.1190 C   0  0  0  0  0  0  0  0  0  0  0  0
   54.7880   34.9310   -8.3380 C   0  0  0  0  0  0  0  0  0  0  0  0
   54.3280   34.3230   -9.3010 O   0  0  0  0  0  0  0  0  0  0  0  0
   53.8800   35.5120   -7.3420 C   0  0  0  0  0  0  0  0  0  0  0  0
   52.4900   35.3970   -7.4630 C   0  0  0  0  0  0  0  0  0  0  0  0
   51.6500   35.9540   -6.5020 C   0  0  0  0  0  0  0  0  0  0  0  0
   52.2120   36.6240   -5.4200 C   0  0  0  0  0  0  0  0  0  0  0  0
   53.5930   36.7460   -5.2880 C   0  0  0  0  0  0  0  0  0  0  0  0
   54.4280   36.1890   -6.2570 C   0  0  0  0  0  0  0  0  0  0  0  0
   55.7790   36.3500   -6.0840 O   0  0  0  0  0  0  0  0  0  0  0  0
   51.4310   37.1860   -4.4530 O   0  0  0  0  0  0  0  0  0  0  0  0
   51.8830   34.7490   -8.5070 O   0  0  0  0  0  0  0  0  0  0  0  0
   57.1090   34.5560   -9.0440 O   0  0  0  0  0  0  0  0  0  0  0  0
   60.9610   34.5010   -5.2440 O   0  0  0  0  0  0  0  0  0  0  0  0
   62.0840   36.8370   -6.0300 O   0  0  0  0  0  0  0  0  0  0  0  0
   58.0130   38.0930   -7.6360 H   0  0  0  0  0  0  0  0  0  0  0  0
   60.3950   38.5530   -7.2270 H   0  0  0  0  0  0  0  0  0  0  0  0
   58.4320   34.2120   -5.7700 H   0  0  0  0  0  0  0  0  0  0  0  0
   50.5750   35.8560   -6.6150 H   0  0  0  0  0  0  0  0  0  0  0  0
   54.0120   37.2740   -4.4360 H   0  0  0  0  0  0  0  0  0  0  0  0
   52.0060   37.5940   -3.7830 H   0  0  0  0  0  0  0  0  0  0  0  0
   52.4360   33.9690   -8.7450 H   0  0  0  0  0  0  0  0  0  0  0  0
   56.6940   33.7640   -9.4250 H   0  0  0  0  0  0  0  0  0  0  0  0
   61.6000   35.0190   -4.7150 H   0  0  0  0  0  0  0  0  0  0  0  0
   62.3240   36.3360   -5.2310 H   0  0  0  0  0  0  0  0  0  0  0  0
  1  2  2  0  0  0  0
  1  6  1  0  0  0  0
  2  3  1  0  0  0  0
  3 22  1  0  0  0  0
  3  4  2  0  0  0  0
  4 21  1  0  0  0  0
  5  4  1  0  0  0  0
  5 25  1  0  0  0  0
  6  5  2  0  0  0  0
  7  6  1  0  0  0  0
  7 17  1  0  0  0  0
  8  7  2  0  0  0  0
  9  8  1  0  0  0  0
  9 11  1  0  0  0  0
 10  9  2  0  0  0  0
 11 16  1  0  0  0  0
 12 11  2  0  0  0  0
 12 13  1  0  0  0  0
 13 14  2  0  0  0  0
 14 15  1  0  0  0  0
 14 18  1  0  0  0  0
 15 27  1  0  0  0  0
 16 17  1  0  0  0  0
 16 15  2  0  0  0  0
 18 28  1  0  0  0  0
 19 12  1  0  0  0  0
 20  8  1  0  0  0  0
 21 31  1  0  0  0  0
 22 32  1  0  0  0  0
 23  1  1  0  0  0  0
 24  2  1  0  0  0  0
 26 13  1  0  0  0  0
 29 19  1  0  0  0  0
 30 20  1  0  0  0  0
M  END
>  <Pose>
3

>  <Score>
-6.02

$$$$

 OpenBabel10152117223D

 32 34  0  0  0  0  0  0  0  0999 V2000
   58.6880   37.2120   -7.3220 C   0  0  0  0  0  0  0  0  0  0  0  0
   59.9670   37.5760   -6.8880 C   0  0  0  0  0  0  0  0  0  0  0  0
   60.7180   36.6610   -6.1620 C   0  0  0  0  0  0  0  0  0  0  0  0
   60.1980   35.4040   -5.8630 C   0  0  0  0  0  0  0  0  0  0  0  0
   58.9300   35.0320   -6.2890 C   0  0  0  0  0  0  0  0  0  0  0  0
   58.1660   35.9350   -7.0380 C   0  0  0  0  0  0  0  0  0  0  0  0
   56.8340   35.5470   -7.5320 C   0  0  0  0  0  0  0  0  0  0  0  0
   55.7200   35.6890   -6.7850 C   0  0  0  0  0  0  0  0  0  0  0  0
   54.4330   35.2170   -7.3620 C   0  0  0  0  0  0  0  0  0  0  0  0
   53.3640   35.2830   -6.7590 O   0  0  0  0  0  0  0  0  0  0  0  0
   54.4720   34.6480   -8.7140 C   0  0  0  0  0  0  0  0  0  0  0  0
   53.3150   34.1680   -9.3400 C   0  0  0  0  0  0  0  0  0  0  0  0
   53.3790   33.6360  -10.6260 C   0  0  0  0  0  0  0  0  0  0  0  0
   54.6070   33.5910  -11.2790 C   0  0  0  0  0  0  0  0  0  0  0  0
   55.7640   34.0650  -10.6670 C   0  0  0  0  0  0  0  0  0  0  0  0
   55.6940   34.5930   -9.3770 C   0  0  0  0  0  0  0  0  0  0  0  0
   56.8660   35.0330   -8.8180 O   0  0  0  0  0  0  0  0  0  0  0  0
   54.7200   33.0800  -12.5380 O   0  0  0  0  0  0  0  0  0  0  0  0
   52.0820   34.1870   -8.7450 O   0  0  0  0  0  0  0  0  0  0  0  0
   55.6850   36.2450   -5.5180 O   0  0  0  0  0  0  0  0  0  0  0  0
   60.9450   34.5130   -5.1460 O   0  0  0  0  0  0  0  0  0  0  0  0
   61.9780   36.9500   -5.7190 O   0  0  0  0  0  0  0  0  0  0  0  0
   58.0970   37.9320   -7.8860 H   0  0  0  0  0  0  0  0  0  0  0  0
   60.3490   38.5640   -7.1240 H   0  0  0  0  0  0  0  0  0  0  0  0
   58.5510   34.0440   -6.0430 H   0  0  0  0  0  0  0  0  0  0  0  0
   52.4720   33.2670  -11.0930 H   0  0  0  0  0  0  0  0  0  0  0  0
   56.7140   34.0200  -11.1930 H   0  0  0  0  0  0  0  0  0  0  0  0
   54.8630   32.1200  -12.4760 H   0  0  0  0  0  0  0  0  0  0  0  0
   51.8080   33.2550   -8.5790 H   0  0  0  0  0  0  0  0  0  0  0  0
   56.4040   36.8930   -5.4330 H   0  0  0  0  0  0  0  0  0  0  0  0
   61.8090   34.9550   -5.0230 H   0  0  0  0  0  0  0  0  0  0  0  0
   62.2630   36.2390   -5.1190 H   0  0  0  0  0  0  0  0  0  0  0  0
  1  6  2  0  0  0  0
  1  2  1  0  0  0  0
  2  3  2  0  0  0  0
  3  4  1  0  0  0  0
  3 22  1  0  0  0  0
  4 21  1  0  0  0  0
  5 25  1  0  0  0  0
  5  4  2  0  0  0  0
  6  5  1  0  0  0  0
  7  6  1  0  0  0  0
  7  8  2  0  0  0  0
  8 20  1  0  0  0  0
  9  8  1  0  0  0  0
  9 10  2  0  0  0  0
 11  9  1  0  0  0  0
 12 19  1  0  0  0  0
 12 11  1  0  0  0  0
 13 12  2  0  0  0  0
 14 15  2  0  0  0  0
 14 13  1  0  0  0  0
 15 16  1  0  0  0  0
 16 17  1  0  0  0  0
 16 11  2  0  0  0  0
 17  7  1  0  0  0  0
 18 28  1  0  0  0  0
 18 14  1  0  0  0  0
 19 29  1  0  0  0  0
 20 30  1  0  0  0  0
 21 31  1  0  0  0  0
 22 32  1  0  0  0  0
 23  1  1  0  0  0  0
 24  2  1  0  0  0  0
 26 13  1  0  0  0  0
 27 15  1  0  0  0  0
M  END
>  <Pose>
1

>  <Score>
-5.68

$$$$

 OpenBabel10152117223D

 32 34  0  0  0  0  0  0  0  0999 V2000
   59.2300   37.8070   -7.3450 C   0  0  0  0  0  0  0  0  0  0  0  0
   60.5940   37.9560   -7.0750 C   0  0  0  0  0  0  0  0  0  0  0  0
   61.2390   36.9910   -6.3130 C   0  0  0  0  0  0  0  0  0  0  0  0
   60.5330   35.8970   -5.8170 C   0  0  0  0  0  0  0  0  0  0  0  0
   59.1780   35.7400   -6.0800 C   0  0  0  0  0  0  0  0  0  0  0  0
   58.5160   36.6940   -6.8620 C   0  0  0  0  0  0  0  0  0  0  0  0
   57.0890   36.5260   -7.1840 C   0  0  0  0  0  0  0  0  0  0  0  0
   56.6530   36.3400   -8.4460 C   0  0  0  0  0  0  0  0  0  0  0  0
   55.1850   36.2340   -8.6650 C   0  0  0  0  0  0  0  0  0  0  0  0
   54.6830   36.0810   -9.7770 O   0  0  0  0  0  0  0  0  0  0  0  0
   54.3220   36.3210   -7.4820 C   0  0  0  0  0  0  0  0  0  0  0  0
   52.9280   36.2410   -7.5850 C   0  0  0  0  0  0  0  0  0  0  0  0
   52.1320   36.3240   -6.4450 C   0  0  0  0  0  0  0  0  0  0  0  0
   52.7410   36.4840   -5.2040 C   0  0  0  0  0  0  0  0  0  0  0  0
   54.1260   36.5650   -5.0890 C   0  0  0  0  0  0  0  0  0  0  0  0
   54.9180   36.4860   -6.2350 C   0  0  0  0  0  0  0  0  0  0  0  0
   56.2750   36.5840   -6.0650 O   0  0  0  0  0  0  0  0  0  0  0  0
   52.0040   36.5690   -4.0600 O   0  0  0  0  0  0  0  0  0  0  0  0
   52.2750   36.0840   -8.7780 O   0  0  0  0  0  0  0  0  0  0  0  0
   57.4720   36.2370   -9.5570 O   0  0  0  0  0  0  0  0  0  0  0  0
   61.1770   34.9560   -5.0660 O   0  0  0  0  0  0  0  0  0  0  0  0
   62.5730   37.0710   -6.0230 O   0  0  0  0  0  0  0  0  0  0  0  0
   58.7230   38.5680   -7.9370 H   0  0  0  0  0  0  0  0  0  0  0  0
   61.1240   38.8200   -7.4630 H   0  0  0  0  0  0  0  0  0  0  0  0
   58.6530   34.8770   -5.6820 H   0  0  0  0  0  0  0  0  0  0  0  0
   51.0530   36.2620   -6.5450 H   0  0  0  0  0  0  0  0  0  0  0  0
   54.5830   36.6910   -4.1110 H   0  0  0  0  0  0  0  0  0  0  0  0
   51.9520   37.5020   -3.7890 H   0  0  0  0  0  0  0  0  0  0  0  0
   51.5900   36.7890   -8.8470 H   0  0  0  0  0  0  0  0  0  0  0  0
   58.4000   36.2260   -9.2700 H   0  0  0  0  0  0  0  0  0  0  0  0
   61.3610   35.4000   -4.2150 H   0  0  0  0  0  0  0  0  0  0  0  0
   62.8570   36.2180   -5.6500 H   0  0  0  0  0  0  0  0  0  0  0  0
  1  2  2  0  0  0  0
  1  6  1  0  0  0  0
  2  3  1  0  0  0  0
  3 22  1  0  0  0  0
  3  4  2  0  0  0  0
  4 21  1  0  0  0  0
  5  4  1  0  0  0  0
  5 25  1  0  0  0  0
  6  5  2  0  0  0  0
  7  6  1  0  0  0  0
  7 17  1  0  0  0  0
  8  7  2  0  0  0  0
  9  8  1  0  0  0  0
  9 11  1  0  0  0  0
 10  9  2  0  0  0  0
 11 16  1  0  0  0  0
 12 11  2  0  0  0  0
 12 13  1  0  0  0  0
 13 14  2  0  0  0  0
 14 15  1  0  0  0  0
 14 18  1  0  0  0  0
 15 27  1  0  0  0  0
 16 17  1  0  0  0  0
 16 15  2  0  0  0  0
 18 28  1  0  0  0  0
 19 12  1  0  0  0  0
 20 30  1  0  0  0  0
 20  8  1  0  0  0  0
 21 31  1  0  0  0  0
 22 32  1  0  0  0  0
 23  1  1  0  0  0  0
 24  2  1  0  0  0  0
 26 13  1  0  0  0  0
 29 19  1  0  0  0  0
M  END
>  <Pose>
1

>  <Score>
-5.66

$$$$
