
 OpenBabel10152117223D

 32 34  0  0  0  0  0  0  0  0999 V2000
   66.7690   28.2280   14.7480 C   0  0  0  0  0  0  0  0  0  0  0  0
   66.7800   27.4740   13.5700 C   0  0  0  0  0  0  0  0  0  0  0  0
   65.9790   27.8720   12.5070 C   0  0  0  0  0  0  0  0  0  0  0  0
   65.1700   29.0000   12.6200 C   0  0  0  0  0  0  0  0  0  0  0  0
   65.1520   29.7550   13.7850 C   0  0  0  0  0  0  0  0  0  0  0  0
   65.9670   29.3790   14.8600 C   0  0  0  0  0  0  0  0  0  0  0  0
   65.9910   30.1880   16.0900 C   0  0  0  0  0  0  0  0  0  0  0  0
   67.1050   30.8180   16.5160 C   0  0  0  0  0  0  0  0  0  0  0  0
   67.0320   31.5660   17.8000 C   0  0  0  0  0  0  0  0  0  0  0  0
   67.9930   32.1590   18.2860 O   0  0  0  0  0  0  0  0  0  0  0  0
   65.7410   31.5770   18.4970 C   0  0  0  0  0  0  0  0  0  0  0  0
   65.5730   32.2450   19.7160 C   0  0  0  0  0  0  0  0  0  0  0  0
   64.3360   32.2440   20.3560 C   0  0  0  0  0  0  0  0  0  0  0  0
   63.2700   31.5710   19.7660 C   0  0  0  0  0  0  0  0  0  0  0  0
   63.4250   30.9030   18.5540 C   0  0  0  0  0  0  0  0  0  0  0  0
   64.6680   30.9050   17.9210 C   0  0  0  0  0  0  0  0  0  0  0  0
   64.7660   30.2200   16.7370 O   0  0  0  0  0  0  0  0  0  0  0  0
   62.0390   31.5410   20.3530 O   0  0  0  0  0  0  0  0  0  0  0  0
   66.5850   32.9230   20.3420 O   0  0  0  0  0  0  0  0  0  0  0  0
   68.3150   30.8210   15.8450 O   0  0  0  0  0  0  0  0  0  0  0  0
   64.3840   29.3810   11.5700 O   0  0  0  0  0  0  0  0  0  0  0  0
   65.9530   27.1860   11.3250 O   0  0  0  0  0  0  0  0  0  0  0  0
   67.3930   27.9110   15.5830 H   0  0  0  0  0  0  0  0  0  0  0  0
   67.4110   26.5930   13.5060 H   0  0  0  0  0  0  0  0  0  0  0  0
   64.5120   30.6310   13.8450 H   0  0  0  0  0  0  0  0  0  0  0  0
   64.2260   32.7660   21.3010 H   0  0  0  0  0  0  0  0  0  0  0  0
   62.5800   30.3830   18.1100 H   0  0  0  0  0  0  0  0  0  0  0  0
   61.3700   31.3600   19.6710 H   0  0  0  0  0  0  0  0  0  0  0  0
   66.8660   33.6630   19.7550 H   0  0  0  0  0  0  0  0  0  0  0  0
   68.2580   31.4260   15.0860 H   0  0  0  0  0  0  0  0  0  0  0  0
   64.4550   28.6460   10.9280 H   0  0  0  0  0  0  0  0  0  0  0  0
   65.2680   27.5800   10.7580 H   0  0  0  0  0  0  0  0  0  0  0  0
  1  6  1  0  0  0  0
  1 23  1  0  0  0  0
  2  1  2  0  0  0  0
  3  4  2  0  0  0  0
  3  2  1  0  0  0  0
  4  5  1  0  0  0  0
  5 25  1  0  0  0  0
  5  6  2  0  0  0  0
  6  7  1  0  0  0  0
  7  8  2  0  0  0  0
  7 17  1  0  0  0  0
  8  9  1  0  0  0  0
  9 10  2  0  0  0  0
  9 11  1  0  0  0  0
 11 12  1  0  0  0  0
 12 19  1  0  0  0  0
 12 13  2  0  0  0  0
 13 26  1  0  0  0  0
 14 18  1  0  0  0  0
 14 13  1  0  0  0  0
 15 14  2  0  0  0  0
 16 11  2  0  0  0  0
 16 15  1  0  0  0  0
 17 16  1  0  0  0  0
 20  8  1  0  0  0  0
 21  4  1  0  0  0  0
 22  3  1  0  0  0  0
 24  2  1  0  0  0  0
 27 15  1  0  0  0  0
 28 18  1  0  0  0  0
 29 19  1  0  0  0  0
 30 20  1  0  0  0  0
 31 21  1  0  0  0  0
 32 22  1  0  0  0  0
M  END
>  <Pose>
4

>  <Score>
-4.44

$$$$

 OpenBabel10152117223D

 32 34  0  0  0  0  0  0  0  0999 V2000
   65.9680   30.0760   13.3440 C   0  0  0  0  0  0  0  0  0  0  0  0
   66.0440   29.3040   12.1800 C   0  0  0  0  0  0  0  0  0  0  0  0
   65.9090   27.9260   12.2750 C   0  0  0  0  0  0  0  0  0  0  0  0
   65.7110   27.3220   13.5140 C   0  0  0  0  0  0  0  0  0  0  0  0
   65.6340   28.0790   14.6760 C   0  0  0  0  0  0  0  0  0  0  0  0
   65.7500   29.4720   14.5960 C   0  0  0  0  0  0  0  0  0  0  0  0
   65.6330   30.2960   15.8110 C   0  0  0  0  0  0  0  0  0  0  0  0
   66.7050   30.6300   16.5590 C   0  0  0  0  0  0  0  0  0  0  0  0
   66.4680   31.4230   17.7960 C   0  0  0  0  0  0  0  0  0  0  0  0
   67.3710   31.7640   18.5570 O   0  0  0  0  0  0  0  0  0  0  0  0
   65.0820   31.7980   18.0970 C   0  0  0  0  0  0  0  0  0  0  0  0
   64.7550   32.5350   19.2420 C   0  0  0  0  0  0  0  0  0  0  0  0
   63.4310   32.8810   19.5030 C   0  0  0  0  0  0  0  0  0  0  0  0
   62.4400   32.4870   18.6100 C   0  0  0  0  0  0  0  0  0  0  0  0
   62.7530   31.7530   17.4680 C   0  0  0  0  0  0  0  0  0  0  0  0
   64.0800   31.4050   17.2150 C   0  0  0  0  0  0  0  0  0  0  0  0
   64.3290   30.6720   16.0840 O   0  0  0  0  0  0  0  0  0  0  0  0
   61.1310   32.8020   18.8210 O   0  0  0  0  0  0  0  0  0  0  0  0
   65.6880   32.9500   20.1540 O   0  0  0  0  0  0  0  0  0  0  0  0
   68.0130   30.2910   16.2610 O   0  0  0  0  0  0  0  0  0  0  0  0
   65.5810   25.9650   13.5970 O   0  0  0  0  0  0  0  0  0  0  0  0
   65.9600   27.1160   11.1750 O   0  0  0  0  0  0  0  0  0  0  0  0
   66.0820   31.1570   13.2690 H   0  0  0  0  0  0  0  0  0  0  0  0
   66.2080   29.7930   11.2250 H   0  0  0  0  0  0  0  0  0  0  0  0
   65.4770   27.5810   15.6290 H   0  0  0  0  0  0  0  0  0  0  0  0
   63.1980   33.4520   20.3960 H   0  0  0  0  0  0  0  0  0  0  0  0
   61.9640   31.4530   16.7830 H   0  0  0  0  0  0  0  0  0  0  0  0
   60.5900   32.3720   18.1370 H   0  0  0  0  0  0  0  0  0  0  0  0
   66.2680   33.6160   19.7170 H   0  0  0  0  0  0  0  0  0  0  0  0
   68.2290   30.6100   15.3680 H   0  0  0  0  0  0  0  0  0  0  0  0
   65.0190   25.8160   14.3830 H   0  0  0  0  0  0  0  0  0  0  0  0
   65.2560   27.3870   10.5600 H   0  0  0  0  0  0  0  0  0  0  0  0
  1  6  1  0  0  0  0
  2  3  1  0  0  0  0
  2  1  2  0  0  0  0
  3  4  2  0  0  0  0
  4 21  1  0  0  0  0
  4  5  1  0  0  0  0
  5 25  1  0  0  0  0
  6  5  2  0  0  0  0
  6  7  1  0  0  0  0
  7 17  1  0  0  0  0
  7  8  2  0  0  0  0
  8  9  1  0  0  0  0
  9 11  1  0  0  0  0
  9 10  2  0  0  0  0
 11 12  1  0  0  0  0
 12 13  2  0  0  0  0
 12 19  1  0  0  0  0
 13 26  1  0  0  0  0
 14 18  1  0  0  0  0
 14 13  1  0  0  0  0
 15 14  2  0  0  0  0
 16 15  1  0  0  0  0
 16 11  2  0  0  0  0
 17 16  1  0  0  0  0
 20  8  1  0  0  0  0
 21 31  1  0  0  0  0
 22  3  1  0  0  0  0
 23  1  1  0  0  0  0
 24  2  1  0  0  0  0
 27 15  1  0  0  0  0
 28 18  1  0  0  0  0
 29 19  1  0  0  0  0
 30 20  1  0  0  0  0
 32 22  1  0  0  0  0
M  END
>  <Pose>
1

>  <Score>
-4.30

$$$$
