
 OpenBabel10152117223D

 32 34  0  0  0  0  0  0  0  0999 V2000
   37.7260   12.2160   -4.4350 C   0  0  0  0  0  0  0  0  0  0  0  0
   36.8230   11.1760   -4.6790 C   0  0  0  0  0  0  0  0  0  0  0  0
   35.4700   11.3910   -4.4540 C   0  0  0  0  0  0  0  0  0  0  0  0
   35.0220   12.6230   -3.9830 C   0  0  0  0  0  0  0  0  0  0  0  0
   35.9100   13.6620   -3.7370 C   0  0  0  0  0  0  0  0  0  0  0  0
   37.2760   13.4680   -3.9760 C   0  0  0  0  0  0  0  0  0  0  0  0
   38.2300   14.5690   -3.7580 C   0  0  0  0  0  0  0  0  0  0  0  0
   38.4640   15.0870   -2.5350 C   0  0  0  0  0  0  0  0  0  0  0  0
   39.4090   16.2320   -2.4350 C   0  0  0  0  0  0  0  0  0  0  0  0
   39.6770   16.7880   -1.3720 O   0  0  0  0  0  0  0  0  0  0  0  0
   40.0310   16.6990   -3.6790 C   0  0  0  0  0  0  0  0  0  0  0  0
   40.9260   17.7750   -3.6910 C   0  0  0  0  0  0  0  0  0  0  0  0
   41.5060   18.1970   -4.8850 C   0  0  0  0  0  0  0  0  0  0  0  0
   41.1850   17.5310   -6.0650 C   0  0  0  0  0  0  0  0  0  0  0  0
   40.2950   16.4600   -6.0660 C   0  0  0  0  0  0  0  0  0  0  0  0
   39.7150   16.0460   -4.8670 C   0  0  0  0  0  0  0  0  0  0  0  0
   38.8370   14.9950   -4.9280 O   0  0  0  0  0  0  0  0  0  0  0  0
   41.7270   17.9060   -7.2580 O   0  0  0  0  0  0  0  0  0  0  0  0
   41.2780   18.4660   -2.5620 O   0  0  0  0  0  0  0  0  0  0  0  0
   37.8900   14.6300   -1.3610 O   0  0  0  0  0  0  0  0  0  0  0  0
   33.6890   12.8240   -3.7630 O   0  0  0  0  0  0  0  0  0  0  0  0
   34.5350   10.4210   -4.6840 O   0  0  0  0  0  0  0  0  0  0  0  0
   38.7880   12.0430   -4.6040 H   0  0  0  0  0  0  0  0  0  0  0  0
   37.1930   10.2200   -5.0370 H   0  0  0  0  0  0  0  0  0  0  0  0
   35.5330   14.6130   -3.3710 H   0  0  0  0  0  0  0  0  0  0  0  0
   42.1960   19.0340   -4.8740 H   0  0  0  0  0  0  0  0  0  0  0  0
   40.0560   15.9540   -6.9980 H   0  0  0  0  0  0  0  0  0  0  0  0
   42.6940   17.8200   -7.2050 H   0  0  0  0  0  0  0  0  0  0  0  0
   42.2220   18.2640   -2.3620 H   0  0  0  0  0  0  0  0  0  0  0  0
   37.5900   13.7150   -1.4880 H   0  0  0  0  0  0  0  0  0  0  0  0
   33.2830   11.9410   -3.8770 H   0  0  0  0  0  0  0  0  0  0  0  0
   33.6530   10.8320   -4.6580 H   0  0  0  0  0  0  0  0  0  0  0  0
  1  6  1  0  0  0  0
  2  3  1  0  0  0  0
  2  1  2  0  0  0  0
  3  4  2  0  0  0  0
  4 21  1  0  0  0  0
  4  5  1  0  0  0  0
  5 25  1  0  0  0  0
  6  7  1  0  0  0  0
  6  5  2  0  0  0  0
  7  8  2  0  0  0  0
  8  9  1  0  0  0  0
  8 20  1  0  0  0  0
  9 10  2  0  0  0  0
 11  9  1  0  0  0  0
 12 11  1  0  0  0  0
 12 19  1  0  0  0  0
 13 26  1  0  0  0  0
 13 12  2  0  0  0  0
 14 13  1  0  0  0  0
 15 14  2  0  0  0  0
 15 16  1  0  0  0  0
 16 11  2  0  0  0  0
 17 16  1  0  0  0  0
 17  7  1  0  0  0  0
 18 28  1  0  0  0  0
 18 14  1  0  0  0  0
 19 29  1  0  0  0  0
 22 32  1  0  0  0  0
 22  3  1  0  0  0  0
 23  1  1  0  0  0  0
 24  2  1  0  0  0  0
 27 15  1  0  0  0  0
 30 20  1  0  0  0  0
 31 21  1  0  0  0  0
M  END
>  <Pose>
2

>  <Score>
-4.55

$$$$

 OpenBabel10152117223D

 32 34  0  0  0  0  0  0  0  0999 V2000
   36.7550   13.8910   -5.4590 C   0  0  0  0  0  0  0  0  0  0  0  0
   35.5950   13.3570   -6.0280 C   0  0  0  0  0  0  0  0  0  0  0  0
   34.7070   12.6590   -5.2200 C   0  0  0  0  0  0  0  0  0  0  0  0
   34.9760   12.4870   -3.8640 C   0  0  0  0  0  0  0  0  0  0  0  0
   36.1240   13.0150   -3.2890 C   0  0  0  0  0  0  0  0  0  0  0  0
   37.0220   13.7360   -4.0850 C   0  0  0  0  0  0  0  0  0  0  0  0
   38.2260   14.3360   -3.4870 C   0  0  0  0  0  0  0  0  0  0  0  0
   39.3290   13.6100   -3.2100 C   0  0  0  0  0  0  0  0  0  0  0  0
   40.4720   14.3050   -2.5570 C   0  0  0  0  0  0  0  0  0  0  0  0
   41.5140   13.7340   -2.2470 O   0  0  0  0  0  0  0  0  0  0  0  0
   40.3170   15.7380   -2.2830 C   0  0  0  0  0  0  0  0  0  0  0  0
   41.3310   16.4790   -1.6640 C   0  0  0  0  0  0  0  0  0  0  0  0
   41.1600   17.8390   -1.4170 C   0  0  0  0  0  0  0  0  0  0  0  0
   39.9690   18.4510   -1.7970 C   0  0  0  0  0  0  0  0  0  0  0  0
   38.9520   17.7250   -2.4120 C   0  0  0  0  0  0  0  0  0  0  0  0
   39.1290   16.3620   -2.6520 C   0  0  0  0  0  0  0  0  0  0  0  0
   38.0910   15.6930   -3.2490 O   0  0  0  0  0  0  0  0  0  0  0  0
   39.7550   19.7800   -1.5770 O   0  0  0  0  0  0  0  0  0  0  0  0
   42.5220   15.9300   -1.2700 O   0  0  0  0  0  0  0  0  0  0  0  0
   39.4790   12.2630   -3.4890 O   0  0  0  0  0  0  0  0  0  0  0  0
   34.0960   11.7980   -3.0790 O   0  0  0  0  0  0  0  0  0  0  0  0
   33.5500   12.1230   -5.7120 O   0  0  0  0  0  0  0  0  0  0  0  0
   37.4550   14.4320   -6.0950 H   0  0  0  0  0  0  0  0  0  0  0  0
   35.4090   13.4940   -7.0890 H   0  0  0  0  0  0  0  0  0  0  0  0
   36.3070   12.8660   -2.2280 H   0  0  0  0  0  0  0  0  0  0  0  0
   41.9570   18.3960   -0.9350 H   0  0  0  0  0  0  0  0  0  0  0  0
   38.0290   18.2210   -2.7000 H   0  0  0  0  0  0  0  0  0  0  0  0
   38.8650   19.8960   -1.2020 H   0  0  0  0  0  0  0  0  0  0  0  0
   43.2140   16.6290   -1.3250 H   0  0  0  0  0  0  0  0  0  0  0  0
   38.8790   11.7510   -2.9220 H   0  0  0  0  0  0  0  0  0  0  0  0
   33.2140   12.0230   -3.4370 H   0  0  0  0  0  0  0  0  0  0  0  0
   32.8810   12.1360   -5.0060 H   0  0  0  0  0  0  0  0  0  0  0  0
  1  6  1  0  0  0  0
  2  1  2  0  0  0  0
  2  3  1  0  0  0  0
  3  4  2  0  0  0  0
  4  5  1  0  0  0  0
  4 21  1  0  0  0  0
  5 25  1  0  0  0  0
  6  7  1  0  0  0  0
  6  5  2  0  0  0  0
  7 17  1  0  0  0  0
  7  8  2  0  0  0  0
  8  9  1  0  0  0  0
  9 11  1  0  0  0  0
  9 10  2  0  0  0  0
 11 12  1  0  0  0  0
 12 13  2  0  0  0  0
 12 19  1  0  0  0  0
 13 26  1  0  0  0  0
 14 18  1  0  0  0  0
 14 13  1  0  0  0  0
 15 14  2  0  0  0  0
 16 15  1  0  0  0  0
 16 11  2  0  0  0  0
 17 16  1  0  0  0  0
 18 28  1  0  0  0  0
 20  8  1  0  0  0  0
 20 30  1  0  0  0  0
 22  3  1  0  0  0  0
 22 32  1  0  0  0  0
 23  1  1  0  0  0  0
 24  2  1  0  0  0  0
 27 15  1  0  0  0  0
 29 19  1  0  0  0  0
 31 21  1  0  0  0  0
M  END
>  <Pose>
2

>  <Score>
-4.28

$$$$

 OpenBabel10152117223D

 32 34  0  0  0  0  0  0  0  0999 V2000
   37.5570   12.1960   -4.4210 C   0  0  0  0  0  0  0  0  0  0  0  0
   36.6220   11.1580   -4.3650 C   0  0  0  0  0  0  0  0  0  0  0  0
   35.2680   11.4690   -4.3850 C   0  0  0  0  0  0  0  0  0  0  0  0
   34.8520   12.7960   -4.4490 C   0  0  0  0  0  0  0  0  0  0  0  0
   35.7730   13.8340   -4.5050 C   0  0  0  0  0  0  0  0  0  0  0  0
   37.1410   13.5380   -4.5050 C   0  0  0  0  0  0  0  0  0  0  0  0
   38.1340   14.6220   -4.6020 C   0  0  0  0  0  0  0  0  0  0  0  0
   38.9650   14.7450   -5.6570 C   0  0  0  0  0  0  0  0  0  0  0  0
   39.9650   15.8460   -5.6290 C   0  0  0  0  0  0  0  0  0  0  0  0
   40.7790   16.0350   -6.5300 O   0  0  0  0  0  0  0  0  0  0  0  0
   39.9550   16.7310   -4.4590 C   0  0  0  0  0  0  0  0  0  0  0  0
   40.8620   17.7910   -4.3340 C   0  0  0  0  0  0  0  0  0  0  0  0
   40.8300   18.6180   -3.2150 C   0  0  0  0  0  0  0  0  0  0  0  0
   39.8830   18.3780   -2.2230 C   0  0  0  0  0  0  0  0  0  0  0  0
   38.9770   17.3270   -2.3350 C   0  0  0  0  0  0  0  0  0  0  0  0
   39.0170   16.4990   -3.4570 C   0  0  0  0  0  0  0  0  0  0  0  0
   38.1100   15.4730   -3.5090 O   0  0  0  0  0  0  0  0  0  0  0  0
   39.8120   19.1610   -1.1090 O   0  0  0  0  0  0  0  0  0  0  0  0
   41.8140   18.0730   -5.2780 O   0  0  0  0  0  0  0  0  0  0  0  0
   38.9560   13.9200   -6.7680 O   0  0  0  0  0  0  0  0  0  0  0  0
   33.5180   13.0910   -4.4650 O   0  0  0  0  0  0  0  0  0  0  0  0
   34.3040   10.5010   -4.3450 O   0  0  0  0  0  0  0  0  0  0  0  0
   38.6190   11.9520   -4.3990 H   0  0  0  0  0  0  0  0  0  0  0  0
   36.9670   10.1310   -4.3060 H   0  0  0  0  0  0  0  0  0  0  0  0
   35.4200   14.8610   -4.5560 H   0  0  0  0  0  0  0  0  0  0  0  0
   41.5430   19.4330   -3.1360 H   0  0  0  0  0  0  0  0  0  0  0  0
   38.2460   17.1560   -1.5490 H   0  0  0  0  0  0  0  0  0  0  0  0
   38.8770   19.3040   -0.8850 H   0  0  0  0  0  0  0  0  0  0  0  0
   42.6990   17.9080   -4.8780 H   0  0  0  0  0  0  0  0  0  0  0  0
   38.4390   13.1210   -6.5700 H   0  0  0  0  0  0  0  0  0  0  0  0
   33.0760   12.2530   -4.2200 H   0  0  0  0  0  0  0  0  0  0  0  0
   33.4340   10.9360   -4.3180 H   0  0  0  0  0  0  0  0  0  0  0  0
  1 23  1  0  0  0  0
  1  2  1  0  0  0  0
  2 24  1  0  0  0  0
  3  2  2  0  0  0  0
  3 22  1  0  0  0  0
  4  3  1  0  0  0  0
  5  6  1  0  0  0  0
  5  4  2  0  0  0  0
  6  1  2  0  0  0  0
  7  6  1  0  0  0  0
  7 17  1  0  0  0  0
  8  9  1  0  0  0  0
  8  7  2  0  0  0  0
  9 11  1  0  0  0  0
 10  9  2  0  0  0  0
 11 12  2  0  0  0  0
 11 16  1  0  0  0  0
 12 13  1  0  0  0  0
 13 26  1  0  0  0  0
 13 14  2  0  0  0  0
 14 18  1  0  0  0  0
 15 14  1  0  0  0  0
 15 27  1  0  0  0  0
 16 15  2  0  0  0  0
 17 16  1  0  0  0  0
 18 28  1  0  0  0  0
 19 29  1  0  0  0  0
 19 12  1  0  0  0  0
 20 30  1  0  0  0  0
 20  8  1  0  0  0  0
 21  4  1  0  0  0  0
 21 31  1  0  0  0  0
 22 32  1  0  0  0  0
 25  5  1  0  0  0  0
M  END
>  <Pose>
1

>  <Score>
-3.88

$$$$
