
 OpenBabel10152117223D

 32 34  0  0  0  0  0  0  0  0999 V2000
   11.6030    6.3050   22.7050 C   0  0  0  0  0  0  0  0  0  0  0  0
   12.7310    6.0390   23.4880 C   0  0  0  0  0  0  0  0  0  0  0  0
   13.9890    6.1160   22.9060 C   0  0  0  0  0  0  0  0  0  0  0  0
   14.1220    6.4440   21.5580 C   0  0  0  0  0  0  0  0  0  0  0  0
   13.0090    6.7100   20.7720 C   0  0  0  0  0  0  0  0  0  0  0  0
   11.7340    6.6540   21.3470 C   0  0  0  0  0  0  0  0  0  0  0  0
   10.5430    6.9700   20.5400 C   0  0  0  0  0  0  0  0  0  0  0  0
    9.7560    8.0330   20.8030 C   0  0  0  0  0  0  0  0  0  0  0  0
    8.5480    8.2300   19.9570 C   0  0  0  0  0  0  0  0  0  0  0  0
    7.7570    9.1550   20.1230 O   0  0  0  0  0  0  0  0  0  0  0  0
    8.3170    7.2570   18.8830 C   0  0  0  0  0  0  0  0  0  0  0  0
    7.2040    7.3500   18.0380 C   0  0  0  0  0  0  0  0  0  0  0  0
    7.0090    6.4160   17.0240 C   0  0  0  0  0  0  0  0  0  0  0  0
    7.9360    5.3910   16.8610 C   0  0  0  0  0  0  0  0  0  0  0  0
    9.0460    5.2870   17.6950 C   0  0  0  0  0  0  0  0  0  0  0  0
    9.2330    6.2240   18.7120 C   0  0  0  0  0  0  0  0  0  0  0  0
   10.3360    6.0670   19.5110 O   0  0  0  0  0  0  0  0  0  0  0  0
    7.7890    4.4530   15.8820 O   0  0  0  0  0  0  0  0  0  0  0  0
    6.2610    8.3370   18.1520 O   0  0  0  0  0  0  0  0  0  0  0  0
    9.9900    8.9600   21.8040 O   0  0  0  0  0  0  0  0  0  0  0  0
   15.3650    6.5140   20.9960 O   0  0  0  0  0  0  0  0  0  0  0  0
   15.1310    5.8810   23.6190 O   0  0  0  0  0  0  0  0  0  0  0  0
   10.6160    6.2380   23.1600 H   0  0  0  0  0  0  0  0  0  0  0  0
   12.6050    5.7770   24.5340 H   0  0  0  0  0  0  0  0  0  0  0  0
   13.1430    6.9640   19.7240 H   0  0  0  0  0  0  0  0  0  0  0  0
    6.1390    6.5040   16.3810 H   0  0  0  0  0  0  0  0  0  0  0  0
    9.7580    4.4790   17.5520 H   0  0  0  0  0  0  0  0  0  0  0  0
    8.5570    3.8570   15.9000 H   0  0  0  0  0  0  0  0  0  0  0  0
    5.8360    8.4570   17.2710 H   0  0  0  0  0  0  0  0  0  0  0  0
   10.3600    9.7680   21.4120 H   0  0  0  0  0  0  0  0  0  0  0  0
   15.2770    6.0460   20.1410 H   0  0  0  0  0  0  0  0  0  0  0  0
   14.9240    5.9580   24.5660 H   0  0  0  0  0  0  0  0  0  0  0  0
  1 23  1  0  0  0  0
  1  2  1  0  0  0  0
  2 24  1  0  0  0  0
  3  2  2  0  0  0  0
  3 22  1  0  0  0  0
  4  3  1  0  0  0  0
  5  6  1  0  0  0  0
  5  4  2  0  0  0  0
  6  1  2  0  0  0  0
  7  8  2  0  0  0  0
  7  6  1  0  0  0  0
  8 20  1  0  0  0  0
  9 10  2  0  0  0  0
  9  8  1  0  0  0  0
 11  9  1  0  0  0  0
 12 19  1  0  0  0  0
 12 11  2  0  0  0  0
 13 12  1  0  0  0  0
 14 13  2  0  0  0  0
 14 15  1  0  0  0  0
 15 16  2  0  0  0  0
 16 11  1  0  0  0  0
 16 17  1  0  0  0  0
 17  7  1  0  0  0  0
 18 28  1  0  0  0  0
 18 14  1  0  0  0  0
 21  4  1  0  0  0  0
 22 32  1  0  0  0  0
 25  5  1  0  0  0  0
 26 13  1  0  0  0  0
 27 15  1  0  0  0  0
 29 19  1  0  0  0  0
 30 20  1  0  0  0  0
 31 21  1  0  0  0  0
M  END
>  <Pose>
1

>  <Score>
-4.56

$$$$

 OpenBabel10152117223D

 32 34  0  0  0  0  0  0  0  0999 V2000
    7.8940    5.2820   15.6730 C   0  0  0  0  0  0  0  0  0  0  0  0
    8.3390    5.7490   16.9140 C   0  0  0  0  0  0  0  0  0  0  0  0
    8.6960    7.0840   17.0430 C   0  0  0  0  0  0  0  0  0  0  0  0
    8.6220    7.9420   15.9470 C   0  0  0  0  0  0  0  0  0  0  0  0
    8.1810    7.4880   14.7110 C   0  0  0  0  0  0  0  0  0  0  0  0
    7.7990    6.1490   14.5680 C   0  0  0  0  0  0  0  0  0  0  0  0
    7.2940    5.6570   13.2750 C   0  0  0  0  0  0  0  0  0  0  0  0
    6.0440    5.1720   13.1280 C   0  0  0  0  0  0  0  0  0  0  0  0
    5.6520    4.6530   11.7900 C   0  0  0  0  0  0  0  0  0  0  0  0
    4.5450    4.1750   11.5540 O   0  0  0  0  0  0  0  0  0  0  0  0
    6.6560    4.7280   10.7220 C   0  0  0  0  0  0  0  0  0  0  0  0
    6.3880    4.2570    9.4310 C   0  0  0  0  0  0  0  0  0  0  0  0
    7.3570    4.3420    8.4350 C   0  0  0  0  0  0  0  0  0  0  0  0
    8.5940    4.9030    8.7400 C   0  0  0  0  0  0  0  0  0  0  0  0
    8.8730    5.3740   10.0200 C   0  0  0  0  0  0  0  0  0  0  0  0
    7.8990    5.2820   11.0150 C   0  0  0  0  0  0  0  0  0  0  0  0
    8.2320    5.7490   12.2600 O   0  0  0  0  0  0  0  0  0  0  0  0
    9.5740    5.0090    7.7980 O   0  0  0  0  0  0  0  0  0  0  0  0
    5.1900    3.6970    9.0750 O   0  0  0  0  0  0  0  0  0  0  0  0
    5.0930    5.1230   14.1330 O   0  0  0  0  0  0  0  0  0  0  0  0
    8.9790    9.2530   16.0850 O   0  0  0  0  0  0  0  0  0  0  0  0
    9.1270    7.6060   18.2300 O   0  0  0  0  0  0  0  0  0  0  0  0
    7.6200    4.2320   15.5710 H   0  0  0  0  0  0  0  0  0  0  0  0
    8.3980    5.0620   17.7520 H   0  0  0  0  0  0  0  0  0  0  0  0
    8.1320    8.1790   13.8740 H   0  0  0  0  0  0  0  0  0  0  0  0
    7.1310    3.9710    7.4400 H   0  0  0  0  0  0  0  0  0  0  0  0
    9.8450    5.8080   10.2390 H   0  0  0  0  0  0  0  0  0  0  0  0
   10.3720    5.3760    8.2160 H   0  0  0  0  0  0  0  0  0  0  0  0
    4.9370    3.0480    9.7720 H   0  0  0  0  0  0  0  0  0  0  0  0
    4.2760    5.5450   13.8200 H   0  0  0  0  0  0  0  0  0  0  0  0
    8.4760    9.5670   16.8630 H   0  0  0  0  0  0  0  0  0  0  0  0
    9.2590    8.5630   18.1150 H   0  0  0  0  0  0  0  0  0  0  0  0
  1  2  1  0  0  0  0
  2  3  2  0  0  0  0
  2 24  1  0  0  0  0
  3 22  1  0  0  0  0
  4 21  1  0  0  0  0
  4  3  1  0  0  0  0
  5  4  2  0  0  0  0
  6  5  1  0  0  0  0
  6  1  2  0  0  0  0
  7  6  1  0  0  0  0
  8  7  2  0  0  0  0
  8 20  1  0  0  0  0
  9  8  1  0  0  0  0
 10  9  2  0  0  0  0
 11 16  1  0  0  0  0
 11  9  1  0  0  0  0
 12 11  2  0  0  0  0
 13 14  2  0  0  0  0
 13 12  1  0  0  0  0
 14 15  1  0  0  0  0
 15 27  1  0  0  0  0
 15 16  2  0  0  0  0
 16 17  1  0  0  0  0
 17  7  1  0  0  0  0
 18 28  1  0  0  0  0
 18 14  1  0  0  0  0
 19 12  1  0  0  0  0
 19 29  1  0  0  0  0
 21 31  1  0  0  0  0
 23  1  1  0  0  0  0
 25  5  1  0  0  0  0
 26 13  1  0  0  0  0
 30 20  1  0  0  0  0
 32 22  1  0  0  0  0
M  END
>  <Pose>
1

>  <Score>
-4.42

$$$$

 OpenBabel10152117223D

 32 34  0  0  0  0  0  0  0  0999 V2000
    7.8290    5.3030   16.9160 C   0  0  0  0  0  0  0  0  0  0  0  0
    7.4520    4.7820   15.6740 C   0  0  0  0  0  0  0  0  0  0  0  0
    7.6760    5.5360   14.5300 C   0  0  0  0  0  0  0  0  0  0  0  0
    8.2600    6.7970   14.6220 C   0  0  0  0  0  0  0  0  0  0  0  0
    8.6390    7.3240   15.8500 C   0  0  0  0  0  0  0  0  0  0  0  0
    8.4360    6.5690   17.0120 C   0  0  0  0  0  0  0  0  0  0  0  0
    8.8650    7.0940   18.3190 C   0  0  0  0  0  0  0  0  0  0  0  0
    8.1560    8.0260   18.9880 C   0  0  0  0  0  0  0  0  0  0  0  0
    8.7070    8.5250   20.2780 C   0  0  0  0  0  0  0  0  0  0  0  0
    8.1500    9.3850   20.9560 O   0  0  0  0  0  0  0  0  0  0  0  0
    9.9760    7.9460   20.7330 C   0  0  0  0  0  0  0  0  0  0  0  0
   10.5800    8.3550   21.9280 C   0  0  0  0  0  0  0  0  0  0  0  0
   11.7840    7.7870   22.3400 C   0  0  0  0  0  0  0  0  0  0  0  0
   12.3750    6.8060   21.5490 C   0  0  0  0  0  0  0  0  0  0  0  0
   11.7840    6.3920   20.3580 C   0  0  0  0  0  0  0  0  0  0  0  0
   10.5810    6.9680   19.9490 C   0  0  0  0  0  0  0  0  0  0  0  0
   10.0500    6.5310   18.7630 O   0  0  0  0  0  0  0  0  0  0  0  0
   13.5520    6.2210   21.9100 O   0  0  0  0  0  0  0  0  0  0  0  0
   10.0440    9.3150   22.7450 O   0  0  0  0  0  0  0  0  0  0  0  0
    6.9490    8.5550   18.5650 O   0  0  0  0  0  0  0  0  0  0  0  0
    8.4740    7.5310   13.4900 O   0  0  0  0  0  0  0  0  0  0  0  0
    7.3420    5.0790   13.2860 O   0  0  0  0  0  0  0  0  0  0  0  0
    7.6460    4.7140   17.8140 H   0  0  0  0  0  0  0  0  0  0  0  0
    6.9900    3.8010   15.6250 H   0  0  0  0  0  0  0  0  0  0  0  0
    9.0930    8.3100   15.8920 H   0  0  0  0  0  0  0  0  0  0  0  0
   12.2370    8.1190   23.2690 H   0  0  0  0  0  0  0  0  0  0  0  0
   12.2610    5.6250   19.7540 H   0  0  0  0  0  0  0  0  0  0  0  0
   14.0010    5.9010   21.1090 H   0  0  0  0  0  0  0  0  0  0  0  0
   10.1770   10.1910   22.3150 H   0  0  0  0  0  0  0  0  0  0  0  0
    7.1190    9.2610   17.9190 H   0  0  0  0  0  0  0  0  0  0  0  0
    8.2820    8.4540   13.7530 H   0  0  0  0  0  0  0  0  0  0  0  0
    7.5220    4.1230   13.2510 H   0  0  0  0  0  0  0  0  0  0  0  0
  1  6  1  0  0  0  0
  1 23  1  0  0  0  0
  2  1  2  0  0  0  0
  3  4  2  0  0  0  0
  3  2  1  0  0  0  0
  4  5  1  0  0  0  0
  5 25  1  0  0  0  0
  5  6  2  0  0  0  0
  6  7  1  0  0  0  0
  7 17  1  0  0  0  0
  7  8  2  0  0  0  0
  8  9  1  0  0  0  0
  9 11  1  0  0  0  0
  9 10  2  0  0  0  0
 11 12  1  0  0  0  0
 12 13  2  0  0  0  0
 12 19  1  0  0  0  0
 13 26  1  0  0  0  0
 14 18  1  0  0  0  0
 14 13  1  0  0  0  0
 15 14  2  0  0  0  0
 16 15  1  0  0  0  0
 16 11  2  0  0  0  0
 17 16  1  0  0  0  0
 20  8  1  0  0  0  0
 21 31  1  0  0  0  0
 21  4  1  0  0  0  0
 22  3  1  0  0  0  0
 24  2  1  0  0  0  0
 27 15  1  0  0  0  0
 28 18  1  0  0  0  0
 29 19  1  0  0  0  0
 30 20  1  0  0  0  0
 32 22  1  0  0  0  0
M  END
>  <Pose>
2

>  <Score>
-4.31

$$$$

 OpenBabel10152117223D

 32 34  0  0  0  0  0  0  0  0999 V2000
   10.6100    8.6450   21.5800 C   0  0  0  0  0  0  0  0  0  0  0  0
   10.9210    9.5600   22.5920 C   0  0  0  0  0  0  0  0  0  0  0  0
   10.0100   10.5620   22.8970 C   0  0  0  0  0  0  0  0  0  0  0  0
    8.8090   10.6590   22.1970 C   0  0  0  0  0  0  0  0  0  0  0  0
    8.4910    9.7560   21.1910 C   0  0  0  0  0  0  0  0  0  0  0  0
    9.3900    8.7280   20.8830 C   0  0  0  0  0  0  0  0  0  0  0  0
    9.0560    7.7380   19.8460 C   0  0  0  0  0  0  0  0  0  0  0  0
    8.9150    6.4250   20.1220 C   0  0  0  0  0  0  0  0  0  0  0  0
    8.6270    5.5040   18.9900 C   0  0  0  0  0  0  0  0  0  0  0  0
    8.4980    4.2900   19.1310 O   0  0  0  0  0  0  0  0  0  0  0  0
    8.4980    6.1000   17.6560 C   0  0  0  0  0  0  0  0  0  0  0  0
    8.2370    5.3170   16.5250 C   0  0  0  0  0  0  0  0  0  0  0  0
    8.1170    5.9080   15.2700 C   0  0  0  0  0  0  0  0  0  0  0  0
    8.2560    7.2880   15.1570 C   0  0  0  0  0  0  0  0  0  0  0  0
    8.5170    8.0780   16.2740 C   0  0  0  0  0  0  0  0  0  0  0  0
    8.6410    7.4790   17.5270 C   0  0  0  0  0  0  0  0  0  0  0  0
    8.9100    8.3020   18.5900 O   0  0  0  0  0  0  0  0  0  0  0  0
    8.1460    7.9140   13.9500 O   0  0  0  0  0  0  0  0  0  0  0  0
    8.0900    3.9560   16.5780 O   0  0  0  0  0  0  0  0  0  0  0  0
    9.0170    5.8690   21.3860 O   0  0  0  0  0  0  0  0  0  0  0  0
    7.9210   11.6500   22.5040 O   0  0  0  0  0  0  0  0  0  0  0  0
   10.2460   11.4790   23.8820 O   0  0  0  0  0  0  0  0  0  0  0  0
   11.3290    7.8640   21.3370 H   0  0  0  0  0  0  0  0  0  0  0  0
   11.8660    9.4730   23.1190 H   0  0  0  0  0  0  0  0  0  0  0  0
    7.5470    9.8540   20.6630 H   0  0  0  0  0  0  0  0  0  0  0  0
    7.9160    5.2840   14.4060 H   0  0  0  0  0  0  0  0  0  0  0  0
    8.6240    9.1540   16.1640 H   0  0  0  0  0  0  0  0  0  0  0  0
    7.4960    8.6330   14.0280 H   0  0  0  0  0  0  0  0  0  0  0  0
    8.4070    3.5810   15.7240 H   0  0  0  0  0  0  0  0  0  0  0  0
    9.9120    5.5120   21.5060 H   0  0  0  0  0  0  0  0  0  0  0  0
    7.9010   12.2200   21.7090 H   0  0  0  0  0  0  0  0  0  0  0  0
   11.0700   11.9530   23.6700 H   0  0  0  0  0  0  0  0  0  0  0  0
  1  2  1  0  0  0  0
  2  3  2  0  0  0  0
  2 24  1  0  0  0  0
  3 22  1  0  0  0  0
  4 21  1  0  0  0  0
  4  3  1  0  0  0  0
  5  4  2  0  0  0  0
  6  5  1  0  0  0  0
  6  1  2  0  0  0  0
  7  8  2  0  0  0  0
  7  6  1  0  0  0  0
  8 20  1  0  0  0  0
  9 10  2  0  0  0  0
  9  8  1  0  0  0  0
 11  9  1  0  0  0  0
 12 19  1  0  0  0  0
 12 11  2  0  0  0  0
 13 12  1  0  0  0  0
 14 13  2  0  0  0  0
 14 15  1  0  0  0  0
 15 16  2  0  0  0  0
 16 11  1  0  0  0  0
 16 17  1  0  0  0  0
 17  7  1  0  0  0  0
 18 28  1  0  0  0  0
 18 14  1  0  0  0  0
 20 30  1  0  0  0  0
 23  1  1  0  0  0  0
 25  5  1  0  0  0  0
 26 13  1  0  0  0  0
 27 15  1  0  0  0  0
 29 19  1  0  0  0  0
 31 21  1  0  0  0  0
 32 22  1  0  0  0  0
M  END
>  <Pose>
1

>  <Score>
-4.24

$$$$
