
 OpenBabel10152117223D

 32 34  0  0  0  0  0  0  0  0999 V2000
   25.4160    6.3540   -4.8470 C   0  0  0  0  0  0  0  0  0  0  0  0
   26.4240    5.7310   -5.5910 C   0  0  0  0  0  0  0  0  0  0  0  0
   26.2170    5.4990   -6.9440 C   0  0  0  0  0  0  0  0  0  0  0  0
   25.0180    5.8720   -7.5470 C   0  0  0  0  0  0  0  0  0  0  0  0
   24.0110    6.4910   -6.8170 C   0  0  0  0  0  0  0  0  0  0  0  0
   24.2100    6.7490   -5.4560 C   0  0  0  0  0  0  0  0  0  0  0  0
   23.1700    7.4380   -4.6730 C   0  0  0  0  0  0  0  0  0  0  0  0
   23.3800    8.6390   -4.0970 C   0  0  0  0  0  0  0  0  0  0  0  0
   22.2780    9.2220   -3.2840 C   0  0  0  0  0  0  0  0  0  0  0  0
   22.3730   10.3000   -2.7030 O   0  0  0  0  0  0  0  0  0  0  0  0
   21.0340    8.4490   -3.1900 C   0  0  0  0  0  0  0  0  0  0  0  0
   19.9420    8.9080   -2.4420 C   0  0  0  0  0  0  0  0  0  0  0  0
   18.7720    8.1570   -2.3710 C   0  0  0  0  0  0  0  0  0  0  0  0
   18.7010    6.9470   -3.0550 C   0  0  0  0  0  0  0  0  0  0  0  0
   19.7810    6.4800   -3.8010 C   0  0  0  0  0  0  0  0  0  0  0  0
   20.9520    7.2350   -3.8650 C   0  0  0  0  0  0  0  0  0  0  0  0
   21.9870    6.7220   -4.6030 O   0  0  0  0  0  0  0  0  0  0  0  0
   17.5770    6.1770   -3.0160 O   0  0  0  0  0  0  0  0  0  0  0  0
   19.9560   10.0900   -1.7500 O   0  0  0  0  0  0  0  0  0  0  0  0
   24.5480    9.3730   -4.2050 O   0  0  0  0  0  0  0  0  0  0  0  0
   24.8250    5.6360   -8.8780 O   0  0  0  0  0  0  0  0  0  0  0  0
   27.1660    4.9070   -7.7290 O   0  0  0  0  0  0  0  0  0  0  0  0
   25.5760    6.5290   -3.7840 H   0  0  0  0  0  0  0  0  0  0  0  0
   27.3470    5.4400   -5.1000 H   0  0  0  0  0  0  0  0  0  0  0  0
   23.0870    6.7720   -7.3140 H   0  0  0  0  0  0  0  0  0  0  0  0
   17.9370    8.5290   -1.7850 H   0  0  0  0  0  0  0  0  0  0  0  0
   19.7060    5.5320   -4.3270 H   0  0  0  0  0  0  0  0  0  0  0  0
   17.2640    6.1240   -2.0970 H   0  0  0  0  0  0  0  0  0  0  0  0
   20.3510    9.9200   -0.8630 H   0  0  0  0  0  0  0  0  0  0  0  0
   24.3940   10.2700   -3.8650 H   0  0  0  0  0  0  0  0  0  0  0  0
   24.1160    4.9620   -8.9110 H   0  0  0  0  0  0  0  0  0  0  0  0
   26.9960    3.9490   -7.7470 H   0  0  0  0  0  0  0  0  0  0  0  0
  1 23  1  0  0  0  0
  2 24  1  0  0  0  0
  2  1  2  0  0  0  0
  3  2  1  0  0  0  0
  4  3  2  0  0  0  0
  4  5  1  0  0  0  0
  5  6  2  0  0  0  0
  6  1  1  0  0  0  0
  6  7  1  0  0  0  0
  7 17  1  0  0  0  0
  7  8  2  0  0  0  0
  8  9  1  0  0  0  0
  9 11  1  0  0  0  0
  9 10  2  0  0  0  0
 11 12  1  0  0  0  0
 12 13  2  0  0  0  0
 12 19  1  0  0  0  0
 13 26  1  0  0  0  0
 14 18  1  0  0  0  0
 14 13  1  0  0  0  0
 15 14  2  0  0  0  0
 16 15  1  0  0  0  0
 16 11  2  0  0  0  0
 17 16  1  0  0  0  0
 18 28  1  0  0  0  0
 19 29  1  0  0  0  0
 20  8  1  0  0  0  0
 20 30  1  0  0  0  0
 21  4  1  0  0  0  0
 22  3  1  0  0  0  0
 25  5  1  0  0  0  0
 27 15  1  0  0  0  0
 31 21  1  0  0  0  0
 32 22  1  0  0  0  0
M  END
>  <Pose>
1

>  <Score>
-4.94

$$$$

 OpenBabel10152117223D

 32 34  0  0  0  0  0  0  0  0999 V2000
   23.6990    6.5750   -7.1310 C   0  0  0  0  0  0  0  0  0  0  0  0
   24.6440    6.6180   -8.1620 C   0  0  0  0  0  0  0  0  0  0  0  0
   25.9020    6.0720   -7.9460 C   0  0  0  0  0  0  0  0  0  0  0  0
   26.2190    5.4980   -6.7170 C   0  0  0  0  0  0  0  0  0  0  0  0
   25.2870    5.4490   -5.6880 C   0  0  0  0  0  0  0  0  0  0  0  0
   24.0080    5.9790   -5.8940 C   0  0  0  0  0  0  0  0  0  0  0  0
   22.9950    5.9040   -4.8280 C   0  0  0  0  0  0  0  0  0  0  0  0
   22.5520    4.7280   -4.3380 C   0  0  0  0  0  0  0  0  0  0  0  0
   21.4880    4.7650   -3.2980 C   0  0  0  0  0  0  0  0  0  0  0  0
   21.0030    3.7520   -2.7990 O   0  0  0  0  0  0  0  0  0  0  0  0
   21.0150    6.0870   -2.8700 C   0  0  0  0  0  0  0  0  0  0  0  0
   20.0110    6.2270   -1.9050 C   0  0  0  0  0  0  0  0  0  0  0  0
   19.5820    7.4930   -1.5140 C   0  0  0  0  0  0  0  0  0  0  0  0
   20.1660    8.6150   -2.0940 C   0  0  0  0  0  0  0  0  0  0  0  0
   21.1650    8.4880   -3.0560 C   0  0  0  0  0  0  0  0  0  0  0  0
   21.5870    7.2170   -3.4460 C   0  0  0  0  0  0  0  0  0  0  0  0
   22.5640    7.1510   -4.4060 O   0  0  0  0  0  0  0  0  0  0  0  0
   19.7800    9.8750   -1.7440 O   0  0  0  0  0  0  0  0  0  0  0  0
   19.4010    5.1600   -1.3010 O   0  0  0  0  0  0  0  0  0  0  0  0
   23.0160    3.4840   -4.7300 O   0  0  0  0  0  0  0  0  0  0  0  0
   27.4600    4.9650   -6.5150 O   0  0  0  0  0  0  0  0  0  0  0  0
   26.8660    6.0710   -8.9150 O   0  0  0  0  0  0  0  0  0  0  0  0
   22.7150    7.0100   -7.2990 H   0  0  0  0  0  0  0  0  0  0  0  0
   24.3800    7.0790   -9.1090 H   0  0  0  0  0  0  0  0  0  0  0  0
   25.5620    4.9940   -4.7400 H   0  0  0  0  0  0  0  0  0  0  0  0
   18.8010    7.5810   -0.7650 H   0  0  0  0  0  0  0  0  0  0  0  0
   21.6080    9.3760   -3.4980 H   0  0  0  0  0  0  0  0  0  0  0  0
   20.2500   10.1320   -0.9320 H   0  0  0  0  0  0  0  0  0  0  0  0
   18.7500    5.5080   -0.6490 H   0  0  0  0  0  0  0  0  0  0  0  0
   22.3410    3.0490   -5.2760 H   0  0  0  0  0  0  0  0  0  0  0  0
   27.5900    4.3470   -7.2630 H   0  0  0  0  0  0  0  0  0  0  0  0
   27.3900    5.2560   -8.8270 H   0  0  0  0  0  0  0  0  0  0  0  0
  1  6  1  0  0  0  0
  2  3  1  0  0  0  0
  2  1  2  0  0  0  0
  3  4  2  0  0  0  0
  4 21  1  0  0  0  0
  4  5  1  0  0  0  0
  5 25  1  0  0  0  0
  6  5  2  0  0  0  0
  6  7  1  0  0  0  0
  7 17  1  0  0  0  0
  7  8  2  0  0  0  0
  8  9  1  0  0  0  0
  9 11  1  0  0  0  0
  9 10  2  0  0  0  0
 11 12  1  0  0  0  0
 12 13  2  0  0  0  0
 12 19  1  0  0  0  0
 13 26  1  0  0  0  0
 14 18  1  0  0  0  0
 14 13  1  0  0  0  0
 15 14  2  0  0  0  0
 16 15  1  0  0  0  0
 16 11  2  0  0  0  0
 17 16  1  0  0  0  0
 18 28  1  0  0  0  0
 19 29  1  0  0  0  0
 20  8  1  0  0  0  0
 22 32  1  0  0  0  0
 22  3  1  0  0  0  0
 23  1  1  0  0  0  0
 24  2  1  0  0  0  0
 27 15  1  0  0  0  0
 30 20  1  0  0  0  0
 31 21  1  0  0  0  0
M  END
>  <Pose>
1

>  <Score>
-4.58

$$$$

 OpenBabel10152117223D

 32 34  0  0  0  0  0  0  0  0999 V2000
   25.8290    5.9750   -4.8620 C   0  0  0  0  0  0  0  0  0  0  0  0
   26.9250    6.1040   -5.7220 C   0  0  0  0  0  0  0  0  0  0  0  0
   26.7480    5.8700   -7.0790 C   0  0  0  0  0  0  0  0  0  0  0  0
   25.4980    5.5030   -7.5730 C   0  0  0  0  0  0  0  0  0  0  0  0
   24.4040    5.3730   -6.7280 C   0  0  0  0  0  0  0  0  0  0  0  0
   24.5600    5.6220   -5.3590 C   0  0  0  0  0  0  0  0  0  0  0  0
   23.4040    5.5260   -4.4520 C   0  0  0  0  0  0  0  0  0  0  0  0
   22.9310    4.3420   -4.0120 C   0  0  0  0  0  0  0  0  0  0  0  0
   21.7260    4.3570   -3.1400 C   0  0  0  0  0  0  0  0  0  0  0  0
   21.2050    3.3350   -2.7000 O   0  0  0  0  0  0  0  0  0  0  0  0
   21.1540    5.6670   -2.8080 C   0  0  0  0  0  0  0  0  0  0  0  0
   20.0150    5.7860   -2.0020 C   0  0  0  0  0  0  0  0  0  0  0  0
   19.4940    7.0410   -1.7000 C   0  0  0  0  0  0  0  0  0  0  0  0
   20.1220    8.1750   -2.2080 C   0  0  0  0  0  0  0  0  0  0  0  0
   21.2540    8.0690   -3.0110 C   0  0  0  0  0  0  0  0  0  0  0  0
   21.7690    6.8080   -3.3140 C   0  0  0  0  0  0  0  0  0  0  0  0
   22.8780    6.7630   -4.1180 O   0  0  0  0  0  0  0  0  0  0  0  0
   19.6490    9.4250   -1.9390 O   0  0  0  0  0  0  0  0  0  0  0  0
   19.3570    4.7060   -1.4760 O   0  0  0  0  0  0  0  0  0  0  0  0
   23.4870    3.1100   -4.3100 O   0  0  0  0  0  0  0  0  0  0  0  0
   25.3360    5.2730   -8.9090 O   0  0  0  0  0  0  0  0  0  0  0  0
   27.7740    5.9910   -7.9740 O   0  0  0  0  0  0  0  0  0  0  0  0
   25.9710    6.1510   -3.7970 H   0  0  0  0  0  0  0  0  0  0  0  0
   27.8920    6.3820   -5.3160 H   0  0  0  0  0  0  0  0  0  0  0  0
   23.4410    5.0860   -7.1410 H   0  0  0  0  0  0  0  0  0  0  0  0
   18.6090    7.1130   -1.0750 H   0  0  0  0  0  0  0  0  0  0  0  0
   21.7290    8.9660   -3.3990 H   0  0  0  0  0  0  0  0  0  0  0  0
   20.0030    9.7170   -1.0820 H   0  0  0  0  0  0  0  0  0  0  0  0
   18.6900    5.0390   -0.8320 H   0  0  0  0  0  0  0  0  0  0  0  0
   22.9590    2.6820   -5.0040 H   0  0  0  0  0  0  0  0  0  0  0  0
   25.9770    4.5640   -9.1190 H   0  0  0  0  0  0  0  0  0  0  0  0
   27.5690    5.4450   -8.7520 H   0  0  0  0  0  0  0  0  0  0  0  0
  1 23  1  0  0  0  0
  2 24  1  0  0  0  0
  2  1  2  0  0  0  0
  3  2  1  0  0  0  0
  4  3  2  0  0  0  0
  4  5  1  0  0  0  0
  5  6  2  0  0  0  0
  6  1  1  0  0  0  0
  6  7  1  0  0  0  0
  7 17  1  0  0  0  0
  7  8  2  0  0  0  0
  8  9  1  0  0  0  0
  9 11  1  0  0  0  0
  9 10  2  0  0  0  0
 11 12  1  0  0  0  0
 12 13  2  0  0  0  0
 12 19  1  0  0  0  0
 13 26  1  0  0  0  0
 14 18  1  0  0  0  0
 14 13  1  0  0  0  0
 15 14  2  0  0  0  0
 16 15  1  0  0  0  0
 16 11  2  0  0  0  0
 17 16  1  0  0  0  0
 18 28  1  0  0  0  0
 19 29  1  0  0  0  0
 20  8  1  0  0  0  0
 21  4  1  0  0  0  0
 22  3  1  0  0  0  0
 25  5  1  0  0  0  0
 27 15  1  0  0  0  0
 30 20  1  0  0  0  0
 31 21  1  0  0  0  0
 32 22  1  0  0  0  0
M  END
>  <Pose>
2

>  <Score>
-4.57

$$$$

 OpenBabel10152117223D

 32 34  0  0  0  0  0  0  0  0999 V2000
   19.5000    7.6320   -3.8110 C   0  0  0  0  0  0  0  0  0  0  0  0
   18.1740    7.7320   -3.3760 C   0  0  0  0  0  0  0  0  0  0  0  0
   17.7590    6.9630   -2.2970 C   0  0  0  0  0  0  0  0  0  0  0  0
   18.6500    6.0980   -1.6650 C   0  0  0  0  0  0  0  0  0  0  0  0
   19.9680    5.9920   -2.0890 C   0  0  0  0  0  0  0  0  0  0  0  0
   20.4080    6.7740   -3.1640 C   0  0  0  0  0  0  0  0  0  0  0  0
   21.8120    6.7040   -3.6050 C   0  0  0  0  0  0  0  0  0  0  0  0
   22.3640    5.5650   -4.0710 C   0  0  0  0  0  0  0  0  0  0  0  0
   23.8050    5.5920   -4.4400 C   0  0  0  0  0  0  0  0  0  0  0  0
   24.4090    4.6070   -4.8570 O   0  0  0  0  0  0  0  0  0  0  0  0
   24.5130    6.8690   -4.2870 C   0  0  0  0  0  0  0  0  0  0  0  0
   25.8720    6.9950   -4.5990 C   0  0  0  0  0  0  0  0  0  0  0  0
   26.5190    8.2180   -4.4470 C   0  0  0  0  0  0  0  0  0  0  0  0
   25.7960    9.3140   -3.9840 C   0  0  0  0  0  0  0  0  0  0  0  0
   24.4440    9.2010   -3.6700 C   0  0  0  0  0  0  0  0  0  0  0  0
   23.8030    7.9710   -3.8200 C   0  0  0  0  0  0  0  0  0  0  0  0
   22.4750    7.9140   -3.4830 O   0  0  0  0  0  0  0  0  0  0  0  0
   26.3850   10.5320   -3.8200 O   0  0  0  0  0  0  0  0  0  0  0  0
   26.6320    5.9520   -5.0580 O   0  0  0  0  0  0  0  0  0  0  0  0
   21.6880    4.3690   -4.2330 O   0  0  0  0  0  0  0  0  0  0  0  0
   18.2300    5.3440   -0.6070 O   0  0  0  0  0  0  0  0  0  0  0  0
   16.4820    7.0220   -1.8160 O   0  0  0  0  0  0  0  0  0  0  0  0
   19.8230    8.2310   -4.6620 H   0  0  0  0  0  0  0  0  0  0  0  0
   17.4940    8.4050   -3.8880 H   0  0  0  0  0  0  0  0  0  0  0  0
   20.6410    5.3100   -1.5770 H   0  0  0  0  0  0  0  0  0  0  0  0
   27.5740    8.2950   -4.6930 H   0  0  0  0  0  0  0  0  0  0  0  0
   23.8970   10.0670   -3.3080 H   0  0  0  0  0  0  0  0  0  0  0  0
   25.7100   11.1710   -3.5350 H   0  0  0  0  0  0  0  0  0  0  0  0
   27.4600    5.9190   -4.5250 H   0  0  0  0  0  0  0  0  0  0  0  0
   21.3640    4.3060   -5.1470 H   0  0  0  0  0  0  0  0  0  0  0  0
   17.2840    5.5680   -0.5020 H   0  0  0  0  0  0  0  0  0  0  0  0
   16.5200    7.0280   -0.8440 H   0  0  0  0  0  0  0  0  0  0  0  0
  1  2  2  0  0  0  0
  1  6  1  0  0  0  0
  2  3  1  0  0  0  0
  3 22  1  0  0  0  0
  3  4  2  0  0  0  0
  4 21  1  0  0  0  0
  5  4  1  0  0  0  0
  5 25  1  0  0  0  0
  6  5  2  0  0  0  0
  7 17  1  0  0  0  0
  7  6  1  0  0  0  0
  8  7  2  0  0  0  0
  9 11  1  0  0  0  0
  9  8  1  0  0  0  0
 10  9  2  0  0  0  0
 11 16  1  0  0  0  0
 12 13  1  0  0  0  0
 12 11  2  0  0  0  0
 13 14  2  0  0  0  0
 14 18  1  0  0  0  0
 14 15  1  0  0  0  0
 15 27  1  0  0  0  0
 16 15  2  0  0  0  0
 16 17  1  0  0  0  0
 18 28  1  0  0  0  0
 19 12  1  0  0  0  0
 19 29  1  0  0  0  0
 20  8  1  0  0  0  0
 21 31  1  0  0  0  0
 22 32  1  0  0  0  0
 23  1  1  0  0  0  0
 24  2  1  0  0  0  0
 26 13  1  0  0  0  0
 30 20  1  0  0  0  0
M  END
>  <Pose>
1

>  <Score>
-4.53

$$$$
