
 OpenBabel10152117223D

 32 34  0  0  0  0  0  0  0  0999 V2000
   28.7930   19.6280   -4.0120 C   0  0  0  0  0  0  0  0  0  0  0  0
   27.5900   19.0560   -3.5870 C   0  0  0  0  0  0  0  0  0  0  0  0
   26.6550   18.6690   -4.5380 C   0  0  0  0  0  0  0  0  0  0  0  0
   26.9100   18.8590   -5.8940 C   0  0  0  0  0  0  0  0  0  0  0  0
   28.1020   19.4260   -6.3260 C   0  0  0  0  0  0  0  0  0  0  0  0
   29.0640   19.8050   -5.3820 C   0  0  0  0  0  0  0  0  0  0  0  0
   30.3490   20.3730   -5.8220 C   0  0  0  0  0  0  0  0  0  0  0  0
   31.4750   19.6340   -5.8950 C   0  0  0  0  0  0  0  0  0  0  0  0
   32.7310   20.3200   -6.3020 C   0  0  0  0  0  0  0  0  0  0  0  0
   33.8130   19.7440   -6.3830 O   0  0  0  0  0  0  0  0  0  0  0  0
   32.6430   21.7520   -6.6120 C   0  0  0  0  0  0  0  0  0  0  0  0
   33.7700   22.4890   -6.9950 C   0  0  0  0  0  0  0  0  0  0  0  0
   33.6580   23.8460   -7.2870 C   0  0  0  0  0  0  0  0  0  0  0  0
   32.4120   24.4580   -7.1950 C   0  0  0  0  0  0  0  0  0  0  0  0
   31.2840   23.7350   -6.8150 C   0  0  0  0  0  0  0  0  0  0  0  0
   31.4030   22.3770   -6.5190 C   0  0  0  0  0  0  0  0  0  0  0  0
   30.2630   21.7180   -6.1380 O   0  0  0  0  0  0  0  0  0  0  0  0
   32.2520   25.7830   -7.4720 O   0  0  0  0  0  0  0  0  0  0  0  0
   35.0200   21.9390   -7.1020 O   0  0  0  0  0  0  0  0  0  0  0  0
   31.5490   18.2790   -5.6220 O   0  0  0  0  0  0  0  0  0  0  0  0
   25.9820   18.4770   -6.8210 O   0  0  0  0  0  0  0  0  0  0  0  0
   25.4650   18.0930   -4.1900 O   0  0  0  0  0  0  0  0  0  0  0  0
   29.5230   19.9370   -3.2650 H   0  0  0  0  0  0  0  0  0  0  0  0
   27.4060   18.9250   -2.5250 H   0  0  0  0  0  0  0  0  0  0  0  0
   28.2750   19.5610   -7.3910 H   0  0  0  0  0  0  0  0  0  0  0  0
   34.5440   24.4000   -7.5810 H   0  0  0  0  0  0  0  0  0  0  0  0
   30.3190   24.2320   -6.7480 H   0  0  0  0  0  0  0  0  0  0  0  0
   32.2300   26.2780   -6.6350 H   0  0  0  0  0  0  0  0  0  0  0  0
   35.1260   21.2790   -6.3780 H   0  0  0  0  0  0  0  0  0  0  0  0
   31.1970   18.1130   -4.7310 H   0  0  0  0  0  0  0  0  0  0  0  0
   26.2330   18.9570   -7.6360 H   0  0  0  0  0  0  0  0  0  0  0  0
   25.5910   17.6080   -3.3560 H   0  0  0  0  0  0  0  0  0  0  0  0
  1  2  1  0  0  0  0
  1 23  1  0  0  0  0
  2 24  1  0  0  0  0
  3 22  1  0  0  0  0
  3  2  2  0  0  0  0
  4  3  1  0  0  0  0
  5  4  2  0  0  0  0
  5  6  1  0  0  0  0
  6  1  2  0  0  0  0
  7  6  1  0  0  0  0
  8  7  2  0  0  0  0
  8 20  1  0  0  0  0
  9  8  1  0  0  0  0
 10  9  2  0  0  0  0
 11 16  1  0  0  0  0
 11  9  1  0  0  0  0
 12 11  2  0  0  0  0
 13 14  2  0  0  0  0
 13 12  1  0  0  0  0
 14 15  1  0  0  0  0
 15 27  1  0  0  0  0
 15 16  2  0  0  0  0
 16 17  1  0  0  0  0
 17  7  1  0  0  0  0
 18 14  1  0  0  0  0
 18 28  1  0  0  0  0
 19 12  1  0  0  0  0
 19 29  1  0  0  0  0
 20 30  1  0  0  0  0
 21  4  1  0  0  0  0
 22 32  1  0  0  0  0
 25  5  1  0  0  0  0
 26 13  1  0  0  0  0
 31 21  1  0  0  0  0
M  END
>  <Pose>
3

>  <Score>
-4.52

$$$$

 OpenBabel10152117223D

 32 34  0  0  0  0  0  0  0  0999 V2000
   31.0020   22.5050   -5.0300 C   0  0  0  0  0  0  0  0  0  0  0  0
   30.7970   23.8880   -5.0660 C   0  0  0  0  0  0  0  0  0  0  0  0
   30.2660   24.4610   -6.2130 C   0  0  0  0  0  0  0  0  0  0  0  0
   29.9530   23.6690   -7.3160 C   0  0  0  0  0  0  0  0  0  0  0  0
   30.1530   22.2950   -7.2900 C   0  0  0  0  0  0  0  0  0  0  0  0
   30.6700   21.6980   -6.1350 C   0  0  0  0  0  0  0  0  0  0  0  0
   30.8540   20.2380   -6.0750 C   0  0  0  0  0  0  0  0  0  0  0  0
   29.9450   19.4210   -5.5050 C   0  0  0  0  0  0  0  0  0  0  0  0
   30.2550   17.9670   -5.4520 C   0  0  0  0  0  0  0  0  0  0  0  0
   29.5040   17.1400   -4.9400 O   0  0  0  0  0  0  0  0  0  0  0  0
   31.5240   17.5290   -6.0450 C   0  0  0  0  0  0  0  0  0  0  0  0
   31.9110   16.1830   -6.0370 C   0  0  0  0  0  0  0  0  0  0  0  0
   33.1190   15.7940   -6.6090 C   0  0  0  0  0  0  0  0  0  0  0  0
   33.9350   16.7610   -7.1910 C   0  0  0  0  0  0  0  0  0  0  0  0
   33.5610   18.1020   -7.2040 C   0  0  0  0  0  0  0  0  0  0  0  0
   32.3520   18.4860   -6.6250 C   0  0  0  0  0  0  0  0  0  0  0  0
   32.0400   19.8210   -6.6560 O   0  0  0  0  0  0  0  0  0  0  0  0
   35.1270   16.4290   -7.7640 O   0  0  0  0  0  0  0  0  0  0  0  0
   31.1490   15.1910   -5.4800 O   0  0  0  0  0  0  0  0  0  0  0  0
   28.7400   19.8350   -4.9650 O   0  0  0  0  0  0  0  0  0  0  0  0
   29.4340   24.2440   -8.4400 O   0  0  0  0  0  0  0  0  0  0  0  0
   30.0290   25.8040   -6.3080 O   0  0  0  0  0  0  0  0  0  0  0  0
   31.4250   22.0560   -4.1320 H   0  0  0  0  0  0  0  0  0  0  0  0
   31.0560   24.4880   -4.1990 H   0  0  0  0  0  0  0  0  0  0  0  0
   29.8980   21.7020   -8.1650 H   0  0  0  0  0  0  0  0  0  0  0  0
   33.4020   14.7470   -6.5920 H   0  0  0  0  0  0  0  0  0  0  0  0
   34.2130   18.8420   -7.6620 H   0  0  0  0  0  0  0  0  0  0  0  0
   34.9540   16.0000   -8.6200 H   0  0  0  0  0  0  0  0  0  0  0  0
   31.4510   15.0590   -4.5510 H   0  0  0  0  0  0  0  0  0  0  0  0
   28.5430   19.3030   -4.1760 H   0  0  0  0  0  0  0  0  0  0  0  0
   28.5880   24.6400   -8.1490 H   0  0  0  0  0  0  0  0  0  0  0  0
   30.4150   26.2390   -5.5280 H   0  0  0  0  0  0  0  0  0  0  0  0
  1 23  1  0  0  0  0
  2  1  1  0  0  0  0
  2 24  1  0  0  0  0
  3  2  2  0  0  0  0
  4  5  2  0  0  0  0
  4  3  1  0  0  0  0
  5  6  1  0  0  0  0
  6  7  1  0  0  0  0
  6  1  2  0  0  0  0
  7  8  2  0  0  0  0
  8  9  1  0  0  0  0
  8 20  1  0  0  0  0
  9 10  2  0  0  0  0
 11 12  1  0  0  0  0
 11  9  1  0  0  0  0
 12 19  1  0  0  0  0
 13 26  1  0  0  0  0
 13 12  2  0  0  0  0
 14 13  1  0  0  0  0
 15 14  2  0  0  0  0
 15 16  1  0  0  0  0
 16 11  2  0  0  0  0
 17 16  1  0  0  0  0
 17  7  1  0  0  0  0
 18 14  1  0  0  0  0
 19 29  1  0  0  0  0
 20 30  1  0  0  0  0
 21 31  1  0  0  0  0
 21  4  1  0  0  0  0
 22  3  1  0  0  0  0
 22 32  1  0  0  0  0
 25  5  1  0  0  0  0
 27 15  1  0  0  0  0
 28 18  1  0  0  0  0
M  END
>  <Pose>
1

>  <Score>
-4.19

$$$$

 OpenBabel10152117223D

 32 34  0  0  0  0  0  0  0  0999 V2000
   30.1910   21.1850   -4.0730 C   0  0  0  0  0  0  0  0  0  0  0  0
   30.2420   22.3990   -3.3810 C   0  0  0  0  0  0  0  0  0  0  0  0
   30.6260   23.5470   -4.0610 C   0  0  0  0  0  0  0  0  0  0  0  0
   30.9660   23.4840   -5.4110 C   0  0  0  0  0  0  0  0  0  0  0  0
   30.9180   22.2830   -6.1070 C   0  0  0  0  0  0  0  0  0  0  0  0
   30.5150   21.1200   -5.4410 C   0  0  0  0  0  0  0  0  0  0  0  0
   30.4220   19.8440   -6.1700 C   0  0  0  0  0  0  0  0  0  0  0  0
   29.7050   19.7140   -7.3050 C   0  0  0  0  0  0  0  0  0  0  0  0
   29.6360   18.3670   -7.9330 C   0  0  0  0  0  0  0  0  0  0  0  0
   28.9970   18.1370   -8.9570 O   0  0  0  0  0  0  0  0  0  0  0  0
   30.3740   17.2820   -7.2760 C   0  0  0  0  0  0  0  0  0  0  0  0
   30.3650   15.9770   -7.7840 C   0  0  0  0  0  0  0  0  0  0  0  0
   31.0760   14.9660   -7.1430 C   0  0  0  0  0  0  0  0  0  0  0  0
   31.7980   15.2720   -5.9930 C   0  0  0  0  0  0  0  0  0  0  0  0
   31.8150   16.5660   -5.4780 C   0  0  0  0  0  0  0  0  0  0  0  0
   31.0960   17.5730   -6.1220 C   0  0  0  0  0  0  0  0  0  0  0  0
   31.1380   18.8240   -5.5650 O   0  0  0  0  0  0  0  0  0  0  0  0
   32.5110   14.3170   -5.3300 O   0  0  0  0  0  0  0  0  0  0  0  0
   29.6720   15.6200   -8.9110 O   0  0  0  0  0  0  0  0  0  0  0  0
   29.0280   20.7450   -7.9330 O   0  0  0  0  0  0  0  0  0  0  0  0
   31.3450   24.6190   -6.0700 O   0  0  0  0  0  0  0  0  0  0  0  0
   30.6840   24.7660   -3.4470 O   0  0  0  0  0  0  0  0  0  0  0  0
   29.8960   20.2830   -3.5370 H   0  0  0  0  0  0  0  0  0  0  0  0
   29.9820   22.4240   -2.3280 H   0  0  0  0  0  0  0  0  0  0  0  0
   31.1880   22.2650   -7.1600 H   0  0  0  0  0  0  0  0  0  0  0  0
   31.0550   13.9610   -7.5510 H   0  0  0  0  0  0  0  0  0  0  0  0
   32.3840   16.7840   -4.5780 H   0  0  0  0  0  0  0  0  0  0  0  0
   32.3950   14.4460   -4.3740 H   0  0  0  0  0  0  0  0  0  0  0  0
   28.7100   15.6610   -8.7040 H   0  0  0  0  0  0  0  0  0  0  0  0
   28.2070   20.3970   -8.3220 H   0  0  0  0  0  0  0  0  0  0  0  0
   31.7280   25.1930   -5.3760 H   0  0  0  0  0  0  0  0  0  0  0  0
   31.4670   25.2400   -3.7790 H   0  0  0  0  0  0  0  0  0  0  0  0
  1 23  1  0  0  0  0
  1  2  1  0  0  0  0
  2 24  1  0  0  0  0
  3 22  1  0  0  0  0
  3  2  2  0  0  0  0
  4  3  1  0  0  0  0
  5  6  1  0  0  0  0
  5  4  2  0  0  0  0
  6  1  2  0  0  0  0
  7 17  1  0  0  0  0
  7  6  1  0  0  0  0
  8  7  2  0  0  0  0
  9  8  1  0  0  0  0
  9 11  1  0  0  0  0
 10  9  2  0  0  0  0
 11 16  1  0  0  0  0
 12 11  2  0  0  0  0
 12 13  1  0  0  0  0
 13 14  2  0  0  0  0
 14 15  1  0  0  0  0
 14 18  1  0  0  0  0
 15 27  1  0  0  0  0
 16 17  1  0  0  0  0
 16 15  2  0  0  0  0
 18 28  1  0  0  0  0
 19 29  1  0  0  0  0
 19 12  1  0  0  0  0
 20  8  1  0  0  0  0
 21  4  1  0  0  0  0
 21 31  1  0  0  0  0
 25  5  1  0  0  0  0
 26 13  1  0  0  0  0
 30 20  1  0  0  0  0
 32 22  1  0  0  0  0
M  END
>  <Pose>
1

>  <Score>
-4.07

$$$$
