
 OpenBabel10152117223D

 32 34  0  0  0  0  0  0  0  0999 V2000
   33.1280   10.5010   -8.5510 C   0  0  0  0  0  0  0  0  0  0  0  0
   33.7300   11.2210   -9.5880 C   0  0  0  0  0  0  0  0  0  0  0  0
   33.4770   10.8490  -10.9010 C   0  0  0  0  0  0  0  0  0  0  0  0
   32.6450    9.7670  -11.1790 C   0  0  0  0  0  0  0  0  0  0  0  0
   32.0430    9.0460  -10.1560 C   0  0  0  0  0  0  0  0  0  0  0  0
   32.2720    9.4190   -8.8270 C   0  0  0  0  0  0  0  0  0  0  0  0
   31.6130    8.6900   -7.7290 C   0  0  0  0  0  0  0  0  0  0  0  0
   32.1720    7.6120   -7.1430 C   0  0  0  0  0  0  0  0  0  0  0  0
   31.3970    6.9200   -6.0780 C   0  0  0  0  0  0  0  0  0  0  0  0
   31.8070    5.9200   -5.4940 O   0  0  0  0  0  0  0  0  0  0  0  0
   30.0850    7.4780   -5.7330 C   0  0  0  0  0  0  0  0  0  0  0  0
   29.2750    6.8940   -4.7520 C   0  0  0  0  0  0  0  0  0  0  0  0
   28.0350    7.4460   -4.4410 C   0  0  0  0  0  0  0  0  0  0  0  0
   27.6130    8.5870   -5.1180 C   0  0  0  0  0  0  0  0  0  0  0  0
   28.4090    9.1770   -6.0960 C   0  0  0  0  0  0  0  0  0  0  0  0
   29.6490    8.6160   -6.4060 C   0  0  0  0  0  0  0  0  0  0  0  0
   30.3850    9.2310   -7.3860 O   0  0  0  0  0  0  0  0  0  0  0  0
   26.4080    9.1640   -4.8480 O   0  0  0  0  0  0  0  0  0  0  0  0
   29.6390    5.7720   -4.0550 O   0  0  0  0  0  0  0  0  0  0  0  0
   33.4200    7.1010   -7.4570 O   0  0  0  0  0  0  0  0  0  0  0  0
   32.4050    9.4080  -12.4750 O   0  0  0  0  0  0  0  0  0  0  0  0
   34.0240   11.5180  -11.9600 O   0  0  0  0  0  0  0  0  0  0  0  0
   33.3330   10.7890   -7.5200 H   0  0  0  0  0  0  0  0  0  0  0  0
   34.3830   12.0550   -9.3500 H   0  0  0  0  0  0  0  0  0  0  0  0
   31.3970    8.2070  -10.4020 H   0  0  0  0  0  0  0  0  0  0  0  0
   27.4210    6.9770   -3.6780 H   0  0  0  0  0  0  0  0  0  0  0  0
   28.0610   10.0670   -6.6140 H   0  0  0  0  0  0  0  0  0  0  0  0
   26.5110    9.7680   -4.0930 H   0  0  0  0  0  0  0  0  0  0  0  0
   29.7740    6.0280   -3.1130 H   0  0  0  0  0  0  0  0  0  0  0  0
   33.7830    7.5890   -8.2150 H   0  0  0  0  0  0  0  0  0  0  0  0
   32.9990    9.9780  -13.0040 H   0  0  0  0  0  0  0  0  0  0  0  0
   33.7690   11.0580  -12.7790 H   0  0  0  0  0  0  0  0  0  0  0  0
  1 23  1  0  0  0  0
  2 24  1  0  0  0  0
  2  1  2  0  0  0  0
  3  2  1  0  0  0  0
  4  3  2  0  0  0  0
  4  5  1  0  0  0  0
  5  6  2  0  0  0  0
  6  1  1  0  0  0  0
  6  7  1  0  0  0  0
  7 17  1  0  0  0  0
  7  8  2  0  0  0  0
  8  9  1  0  0  0  0
  9 11  1  0  0  0  0
  9 10  2  0  0  0  0
 11 12  1  0  0  0  0
 12 13  2  0  0  0  0
 12 19  1  0  0  0  0
 13 26  1  0  0  0  0
 14 18  1  0  0  0  0
 14 13  1  0  0  0  0
 15 14  2  0  0  0  0
 16 15  1  0  0  0  0
 16 11  2  0  0  0  0
 17 16  1  0  0  0  0
 18 28  1  0  0  0  0
 19 29  1  0  0  0  0
 20  8  1  0  0  0  0
 21  4  1  0  0  0  0
 22  3  1  0  0  0  0
 25  5  1  0  0  0  0
 27 15  1  0  0  0  0
 30 20  1  0  0  0  0
 31 21  1  0  0  0  0
 32 22  1  0  0  0  0
M  END
>  <Pose>
3

>  <Score>
-5.16

$$$$

 OpenBabel10152117223D

 32 34  0  0  0  0  0  0  0  0999 V2000
   30.2780   11.9920  -10.5710 C   0  0  0  0  0  0  0  0  0  0  0  0
   31.0830   12.6220  -11.5250 C   0  0  0  0  0  0  0  0  0  0  0  0
   32.2270   11.9760  -11.9740 C   0  0  0  0  0  0  0  0  0  0  0  0
   32.5710   10.7230  -11.4730 C   0  0  0  0  0  0  0  0  0  0  0  0
   31.7780   10.0890  -10.5250 C   0  0  0  0  0  0  0  0  0  0  0  0
   30.6110   10.7180  -10.0740 C   0  0  0  0  0  0  0  0  0  0  0  0
   29.7370   10.0450   -9.0980 C   0  0  0  0  0  0  0  0  0  0  0  0
   29.9100   10.1780   -7.7670 C   0  0  0  0  0  0  0  0  0  0  0  0
   29.0020    9.4130   -6.8700 C   0  0  0  0  0  0  0  0  0  0  0  0
   29.0850    9.4490   -5.6440 O   0  0  0  0  0  0  0  0  0  0  0  0
   27.9710    8.5850   -7.5060 C   0  0  0  0  0  0  0  0  0  0  0  0
   27.0750    7.8210   -6.7480 C   0  0  0  0  0  0  0  0  0  0  0  0
   26.1040    7.0460   -7.3770 C   0  0  0  0  0  0  0  0  0  0  0  0
   26.0350    7.0430   -8.7670 C   0  0  0  0  0  0  0  0  0  0  0  0
   26.9220    7.7980   -9.5310 C   0  0  0  0  0  0  0  0  0  0  0  0
   27.8950    8.5690   -8.8950 C   0  0  0  0  0  0  0  0  0  0  0  0
   28.7490    9.2830   -9.6970 O   0  0  0  0  0  0  0  0  0  0  0  0
   25.1020    6.3010   -9.4280 O   0  0  0  0  0  0  0  0  0  0  0  0
   27.0960    7.7860   -5.3790 O   0  0  0  0  0  0  0  0  0  0  0  0
   30.8700   10.9770   -7.1710 O   0  0  0  0  0  0  0  0  0  0  0  0
   33.6990   10.0980  -11.9200 O   0  0  0  0  0  0  0  0  0  0  0  0
   33.0490   12.5320  -12.9140 O   0  0  0  0  0  0  0  0  0  0  0  0
   29.3850   12.5030  -10.2130 H   0  0  0  0  0  0  0  0  0  0  0  0
   30.8030   13.6030  -11.8960 H   0  0  0  0  0  0  0  0  0  0  0  0
   32.0700    9.1110  -10.1520 H   0  0  0  0  0  0  0  0  0  0  0  0
   25.4190    6.4590   -6.7720 H   0  0  0  0  0  0  0  0  0  0  0  0
   26.8520    7.7820  -10.6150 H   0  0  0  0  0  0  0  0  0  0  0  0
   25.3360    6.2700  -10.3710 H   0  0  0  0  0  0  0  0  0  0  0  0
   27.8390    8.3550   -5.0710 H   0  0  0  0  0  0  0  0  0  0  0  0
   30.9530   10.7320   -6.2340 H   0  0  0  0  0  0  0  0  0  0  0  0
   33.8280   10.4370  -12.8280 H   0  0  0  0  0  0  0  0  0  0  0  0
   33.4670   11.8130  -13.4200 H   0  0  0  0  0  0  0  0  0  0  0  0
  1 23  1  0  0  0  0
  1  6  1  0  0  0  0
  2  1  2  0  0  0  0
  3  2  1  0  0  0  0
  3  4  2  0  0  0  0
  4  5  1  0  0  0  0
  5 25  1  0  0  0  0
  5  6  2  0  0  0  0
  6  7  1  0  0  0  0
  7  8  2  0  0  0  0
  8 20  1  0  0  0  0
  8  9  1  0  0  0  0
  9 10  2  0  0  0  0
 11  9  1  0  0  0  0
 11 12  1  0  0  0  0
 12 19  1  0  0  0  0
 13 26  1  0  0  0  0
 13 12  2  0  0  0  0
 14 13  1  0  0  0  0
 15 16  1  0  0  0  0
 15 14  2  0  0  0  0
 16 11  2  0  0  0  0
 17  7  1  0  0  0  0
 17 16  1  0  0  0  0
 18 14  1  0  0  0  0
 19 29  1  0  0  0  0
 20 30  1  0  0  0  0
 21  4  1  0  0  0  0
 22  3  1  0  0  0  0
 24  2  1  0  0  0  0
 27 15  1  0  0  0  0
 28 18  1  0  0  0  0
 31 21  1  0  0  0  0
 32 22  1  0  0  0  0
M  END
>  <Pose>
1

>  <Score>
-4.68

$$$$

 OpenBabel10152117223D

 32 34  0  0  0  0  0  0  0  0999 V2000
   25.1110   11.7490   -9.4960 C   0  0  0  0  0  0  0  0  0  0  0  0
   25.2770   13.0780   -9.8980 C   0  0  0  0  0  0  0  0  0  0  0  0
   26.5500   13.5320  -10.2160 C   0  0  0  0  0  0  0  0  0  0  0  0
   27.6450   12.6770  -10.1240 C   0  0  0  0  0  0  0  0  0  0  0  0
   27.4910   11.3550   -9.7250 C   0  0  0  0  0  0  0  0  0  0  0  0
   26.2120   10.8760   -9.4190 C   0  0  0  0  0  0  0  0  0  0  0  0
   26.0220    9.4680   -9.0310 C   0  0  0  0  0  0  0  0  0  0  0  0
   25.2630    8.6180   -9.7530 C   0  0  0  0  0  0  0  0  0  0  0  0
   25.0970    7.2310   -9.2430 C   0  0  0  0  0  0  0  0  0  0  0  0
   24.4120    6.3840   -9.8130 O   0  0  0  0  0  0  0  0  0  0  0  0
   25.7920    6.8860   -7.9970 C   0  0  0  0  0  0  0  0  0  0  0  0
   25.6900    5.6090   -7.4310 C   0  0  0  0  0  0  0  0  0  0  0  0
   26.3630    5.3070   -6.2490 C   0  0  0  0  0  0  0  0  0  0  0  0
   27.1380    6.2910   -5.6410 C   0  0  0  0  0  0  0  0  0  0  0  0
   27.2460    7.5640   -6.1940 C   0  0  0  0  0  0  0  0  0  0  0  0
   26.5660    7.8620   -7.3760 C   0  0  0  0  0  0  0  0  0  0  0  0
   26.6980    9.1340   -7.8690 O   0  0  0  0  0  0  0  0  0  0  0  0
   27.8150    6.0430   -4.4840 O   0  0  0  0  0  0  0  0  0  0  0  0
   24.9430    4.6050   -7.9850 O   0  0  0  0  0  0  0  0  0  0  0  0
   24.6260    8.9420  -10.9380 O   0  0  0  0  0  0  0  0  0  0  0  0
   28.8940   13.1350  -10.4360 O   0  0  0  0  0  0  0  0  0  0  0  0
   26.7780   14.8150  -10.6270 O   0  0  0  0  0  0  0  0  0  0  0  0
   24.1120   11.3950   -9.2400 H   0  0  0  0  0  0  0  0  0  0  0  0
   24.4110   13.7300   -9.9550 H   0  0  0  0  0  0  0  0  0  0  0  0
   28.3640   10.7100   -9.6640 H   0  0  0  0  0  0  0  0  0  0  0  0
   26.2710    4.3120   -5.8250 H   0  0  0  0  0  0  0  0  0  0  0  0
   27.8550    8.3180   -5.7040 H   0  0  0  0  0  0  0  0  0  0  0  0
   28.1530    6.8840   -4.1320 H   0  0  0  0  0  0  0  0  0  0  0  0
   25.4490    3.7630   -7.8980 H   0  0  0  0  0  0  0  0  0  0  0  0
   24.2710    9.8440  -10.8740 H   0  0  0  0  0  0  0  0  0  0  0  0
   29.1050   13.7790   -9.7310 H   0  0  0  0  0  0  0  0  0  0  0  0
   26.9100   14.8090  -11.5910 H   0  0  0  0  0  0  0  0  0  0  0  0
  1  6  1  0  0  0  0
  1 23  1  0  0  0  0
  2  1  2  0  0  0  0
  3  4  2  0  0  0  0
  3  2  1  0  0  0  0
  4  5  1  0  0  0  0
  5 25  1  0  0  0  0
  5  6  2  0  0  0  0
  6  7  1  0  0  0  0
  7 17  1  0  0  0  0
  8  9  1  0  0  0  0
  8  7  2  0  0  0  0
  9 11  1  0  0  0  0
 10  9  2  0  0  0  0
 11 12  2  0  0  0  0
 11 16  1  0  0  0  0
 12 13  1  0  0  0  0
 13 26  1  0  0  0  0
 13 14  2  0  0  0  0
 14 18  1  0  0  0  0
 15 27  1  0  0  0  0
 15 14  1  0  0  0  0
 16 15  2  0  0  0  0
 17 16  1  0  0  0  0
 18 28  1  0  0  0  0
 19 29  1  0  0  0  0
 19 12  1  0  0  0  0
 20 30  1  0  0  0  0
 20  8  1  0  0  0  0
 21  4  1  0  0  0  0
 21 31  1  0  0  0  0
 22  3  1  0  0  0  0
 24  2  1  0  0  0  0
 32 22  1  0  0  0  0
M  END
>  <Pose>
1

>  <Score>
-4.43

$$$$
