
 OpenBabel10152117223D

 32 34  0  0  0  0  0  0  0  0999 V2000
   22.7400   29.3990  -11.7410 C   0  0  0  0  0  0  0  0  0  0  0  0
   22.3250   30.6930  -11.4100 C   0  0  0  0  0  0  0  0  0  0  0  0
   21.1450   30.8610  -10.6980 C   0  0  0  0  0  0  0  0  0  0  0  0
   20.3810   29.7560  -10.3300 C   0  0  0  0  0  0  0  0  0  0  0  0
   20.7840   28.4670  -10.6540 C   0  0  0  0  0  0  0  0  0  0  0  0
   21.9810   28.2780  -11.3560 C   0  0  0  0  0  0  0  0  0  0  0  0
   22.4450   26.9170  -11.6760 C   0  0  0  0  0  0  0  0  0  0  0  0
   21.7310   26.0780  -12.4540 C   0  0  0  0  0  0  0  0  0  0  0  0
   22.2670   24.7070  -12.6720 C   0  0  0  0  0  0  0  0  0  0  0  0
   21.6870   23.8610  -13.3470 O   0  0  0  0  0  0  0  0  0  0  0  0
   23.5480   24.3800  -12.0360 C   0  0  0  0  0  0  0  0  0  0  0  0
   24.1310   23.1140  -12.1730 C   0  0  0  0  0  0  0  0  0  0  0  0
   25.3500   22.8290  -11.5610 C   0  0  0  0  0  0  0  0  0  0  0  0
   25.9800   23.8210  -10.8150 C   0  0  0  0  0  0  0  0  0  0  0  0
   25.4100   25.0830  -10.6710 C   0  0  0  0  0  0  0  0  0  0  0  0
   24.1870   25.3600  -11.2820 C   0  0  0  0  0  0  0  0  0  0  0  0
   23.6660   26.6150  -11.0970 O   0  0  0  0  0  0  0  0  0  0  0  0
   27.1740   23.5900  -10.1990 O   0  0  0  0  0  0  0  0  0  0  0  0
   23.5560   22.1020  -12.8940 O   0  0  0  0  0  0  0  0  0  0  0  0
   20.5330   26.3990  -13.0690 O   0  0  0  0  0  0  0  0  0  0  0  0
   19.2210   29.9330   -9.6330 O   0  0  0  0  0  0  0  0  0  0  0  0
   20.6910   32.0970  -10.3330 O   0  0  0  0  0  0  0  0  0  0  0  0
   23.6620   29.2680  -12.3060 H   0  0  0  0  0  0  0  0  0  0  0  0
   22.9300   31.5420  -11.7140 H   0  0  0  0  0  0  0  0  0  0  0  0
   20.1690   27.6230  -10.3530 H   0  0  0  0  0  0  0  0  0  0  0  0
   25.7840   21.8420  -11.6780 H   0  0  0  0  0  0  0  0  0  0  0  0
   25.9170   25.8430  -10.0830 H   0  0  0  0  0  0  0  0  0  0  0  0
   27.2470   24.1770   -9.4270 H   0  0  0  0  0  0  0  0  0  0  0  0
   23.4370   21.3280  -12.2950 H   0  0  0  0  0  0  0  0  0  0  0  0
   19.8300   26.4340  -12.3990 H   0  0  0  0  0  0  0  0  0  0  0  0
   19.3100   29.3520   -8.8500 H   0  0  0  0  0  0  0  0  0  0  0  0
   21.2850   32.4530   -9.6490 H   0  0  0  0  0  0  0  0  0  0  0  0
  1  2  2  0  0  0  0
  1  6  1  0  0  0  0
  2  3  1  0  0  0  0
  3 22  1  0  0  0  0
  3  4  2  0  0  0  0
  4 21  1  0  0  0  0
  5 25  1  0  0  0  0
  5  4  1  0  0  0  0
  6  5  2  0  0  0  0
  7  6  1  0  0  0  0
  7 17  1  0  0  0  0
  8  7  2  0  0  0  0
  9  8  1  0  0  0  0
  9 11  1  0  0  0  0
 10  9  2  0  0  0  0
 11 16  1  0  0  0  0
 12 11  2  0  0  0  0
 12 13  1  0  0  0  0
 13 14  2  0  0  0  0
 14 15  1  0  0  0  0
 14 18  1  0  0  0  0
 15 27  1  0  0  0  0
 16 17  1  0  0  0  0
 16 15  2  0  0  0  0
 18 28  1  0  0  0  0
 19 29  1  0  0  0  0
 19 12  1  0  0  0  0
 20  8  1  0  0  0  0
 20 30  1  0  0  0  0
 21 31  1  0  0  0  0
 22 32  1  0  0  0  0
 23  1  1  0  0  0  0
 24  2  1  0  0  0  0
 26 13  1  0  0  0  0
M  END
>  <Pose>
2

>  <Score>
-3.96

$$$$

 OpenBabel10152117223D

 32 34  0  0  0  0  0  0  0  0999 V2000
   22.9160   23.9170  -11.7510 C   0  0  0  0  0  0  0  0  0  0  0  0
   23.9300   23.0420  -11.3490 C   0  0  0  0  0  0  0  0  0  0  0  0
   25.1350   23.5670  -10.9010 C   0  0  0  0  0  0  0  0  0  0  0  0
   25.3310   24.9450  -10.8630 C   0  0  0  0  0  0  0  0  0  0  0  0
   24.3310   25.8230  -11.2590 C   0  0  0  0  0  0  0  0  0  0  0  0
   23.1030   25.3110  -11.6970 C   0  0  0  0  0  0  0  0  0  0  0  0
   22.0160   26.2250  -12.0860 C   0  0  0  0  0  0  0  0  0  0  0  0
   21.3540   26.1000  -13.2540 C   0  0  0  0  0  0  0  0  0  0  0  0
   20.3080   27.1090  -13.5710 C   0  0  0  0  0  0  0  0  0  0  0  0
   19.6590   27.0970  -14.6150 O   0  0  0  0  0  0  0  0  0  0  0  0
   20.0630   28.1580  -12.5740 C   0  0  0  0  0  0  0  0  0  0  0  0
   19.1060   29.1580  -12.7830 C   0  0  0  0  0  0  0  0  0  0  0  0
   18.8910   30.1400  -11.8190 C   0  0  0  0  0  0  0  0  0  0  0  0
   19.6380   30.1100  -10.6450 C   0  0  0  0  0  0  0  0  0  0  0  0
   20.5930   29.1210  -10.4260 C   0  0  0  0  0  0  0  0  0  0  0  0
   20.8060   28.1430  -11.3980 C   0  0  0  0  0  0  0  0  0  0  0  0
   21.7670   27.2010  -11.1350 O   0  0  0  0  0  0  0  0  0  0  0  0
   19.4630   31.0490   -9.6710 O   0  0  0  0  0  0  0  0  0  0  0  0
   18.3430   29.2360  -13.9180 O   0  0  0  0  0  0  0  0  0  0  0  0
   21.5740   25.0980  -14.1830 O   0  0  0  0  0  0  0  0  0  0  0  0
   26.5210   25.4510  -10.4230 O   0  0  0  0  0  0  0  0  0  0  0  0
   26.1610   22.7670  -10.4820 O   0  0  0  0  0  0  0  0  0  0  0  0
   21.9740   23.5040  -12.1090 H   0  0  0  0  0  0  0  0  0  0  0  0
   23.7600   21.9710  -11.3950 H   0  0  0  0  0  0  0  0  0  0  0  0
   24.5110   26.8930  -11.2180 H   0  0  0  0  0  0  0  0  0  0  0  0
   18.1460   30.9080  -12.0000 H   0  0  0  0  0  0  0  0  0  0  0  0
   21.1660   29.1160   -9.5030 H   0  0  0  0  0  0  0  0  0  0  0  0
   19.2800   30.5980   -8.8300 H   0  0  0  0  0  0  0  0  0  0  0  0
   17.5540   28.6580  -13.7960 H   0  0  0  0  0  0  0  0  0  0  0  0
   21.2810   24.2480  -13.8120 H   0  0  0  0  0  0  0  0  0  0  0  0
   26.3030   25.9100   -9.5870 H   0  0  0  0  0  0  0  0  0  0  0  0
   25.9350   21.8440  -10.6900 H   0  0  0  0  0  0  0  0  0  0  0  0
  1  6  2  0  0  0  0
  1  2  1  0  0  0  0
  2  3  2  0  0  0  0
  3  4  1  0  0  0  0
  3 22  1  0  0  0  0
  4 21  1  0  0  0  0
  5 25  1  0  0  0  0
  5  4  2  0  0  0  0
  6  5  1  0  0  0  0
  7  6  1  0  0  0  0
  7 17  1  0  0  0  0
  8  7  2  0  0  0  0
  9  8  1  0  0  0  0
  9 11  1  0  0  0  0
 10  9  2  0  0  0  0
 11 16  1  0  0  0  0
 12 11  2  0  0  0  0
 12 13  1  0  0  0  0
 13 14  2  0  0  0  0
 14 15  1  0  0  0  0
 14 18  1  0  0  0  0
 15 27  1  0  0  0  0
 16 17  1  0  0  0  0
 16 15  2  0  0  0  0
 18 28  1  0  0  0  0
 19 29  1  0  0  0  0
 19 12  1  0  0  0  0
 20 30  1  0  0  0  0
 20  8  1  0  0  0  0
 21 31  1  0  0  0  0
 23  1  1  0  0  0  0
 24  2  1  0  0  0  0
 26 13  1  0  0  0  0
 32 22  1  0  0  0  0
M  END
>  <Pose>
3

>  <Score>
-3.95

$$$$
