
 OpenBabel10152117223D

 32 34  0  0  0  0  0  0  0  0999 V2000
   22.5620   34.7670   -7.1320 C   0  0  0  0  0  0  0  0  0  0  0  0
   21.5430   35.2480   -7.9600 C   0  0  0  0  0  0  0  0  0  0  0  0
   20.3740   35.7260   -7.3830 C   0  0  0  0  0  0  0  0  0  0  0  0
   20.2170   35.7160   -5.9990 C   0  0  0  0  0  0  0  0  0  0  0  0
   21.2230   35.2400   -5.1680 C   0  0  0  0  0  0  0  0  0  0  0  0
   22.4160   34.7720   -5.7320 C   0  0  0  0  0  0  0  0  0  0  0  0
   23.5090   34.2990   -4.8660 C   0  0  0  0  0  0  0  0  0  0  0  0
   23.9130   33.0120   -4.8540 C   0  0  0  0  0  0  0  0  0  0  0  0
   24.9920   32.6320   -3.9030 C   0  0  0  0  0  0  0  0  0  0  0  0
   25.4200   31.4840   -3.7990 O   0  0  0  0  0  0  0  0  0  0  0  0
   25.5500   33.6960   -3.0600 C   0  0  0  0  0  0  0  0  0  0  0  0
   26.5620   33.4370   -2.1280 C   0  0  0  0  0  0  0  0  0  0  0  0
   27.0760   34.4650   -1.3430 C   0  0  0  0  0  0  0  0  0  0  0  0
   26.5730   35.7530   -1.5000 C   0  0  0  0  0  0  0  0  0  0  0  0
   25.5660   36.0230   -2.4240 C   0  0  0  0  0  0  0  0  0  0  0  0
   25.0520   34.9870   -3.2040 C   0  0  0  0  0  0  0  0  0  0  0  0
   24.0540   35.3070   -4.0870 O   0  0  0  0  0  0  0  0  0  0  0  0
   27.0450   36.7930   -0.7550 O   0  0  0  0  0  0  0  0  0  0  0  0
   27.0940   32.1900   -1.9310 O   0  0  0  0  0  0  0  0  0  0  0  0
   23.3980   32.0160   -5.6650 O   0  0  0  0  0  0  0  0  0  0  0  0
   19.0620   36.1850   -5.4420 O   0  0  0  0  0  0  0  0  0  0  0  0
   19.3460   36.2210   -8.1350 O   0  0  0  0  0  0  0  0  0  0  0  0
   23.4760   34.3860   -7.5860 H   0  0  0  0  0  0  0  0  0  0  0  0
   21.6820   35.2390   -9.0370 H   0  0  0  0  0  0  0  0  0  0  0  0
   21.0740   35.2450   -4.0910 H   0  0  0  0  0  0  0  0  0  0  0  0
   27.8590   34.2440   -0.6240 H   0  0  0  0  0  0  0  0  0  0  0  0
   25.1860   37.0350   -2.5310 H   0  0  0  0  0  0  0  0  0  0  0  0
   27.6350   36.4430   -0.0650 H   0  0  0  0  0  0  0  0  0  0  0  0
   27.8050   32.0530   -2.5990 H   0  0  0  0  0  0  0  0  0  0  0  0
   24.0990   31.6890   -6.2530 H   0  0  0  0  0  0  0  0  0  0  0  0
   18.6870   35.4190   -4.9640 H   0  0  0  0  0  0  0  0  0  0  0  0
   18.6440   36.5230   -7.5340 H   0  0  0  0  0  0  0  0  0  0  0  0
  1  6  1  0  0  0  0
  2  3  1  0  0  0  0
  2  1  2  0  0  0  0
  3  4  2  0  0  0  0
  4 21  1  0  0  0  0
  4  5  1  0  0  0  0
  5 25  1  0  0  0  0
  6  5  2  0  0  0  0
  6  7  1  0  0  0  0
  7  8  2  0  0  0  0
  7 17  1  0  0  0  0
  8  9  1  0  0  0  0
  9 10  2  0  0  0  0
  9 11  1  0  0  0  0
 11 12  1  0  0  0  0
 12 19  1  0  0  0  0
 12 13  2  0  0  0  0
 13 26  1  0  0  0  0
 14 13  1  0  0  0  0
 14 18  1  0  0  0  0
 15 14  2  0  0  0  0
 16 11  2  0  0  0  0
 16 15  1  0  0  0  0
 17 16  1  0  0  0  0
 18 28  1  0  0  0  0
 20  8  1  0  0  0  0
 21 31  1  0  0  0  0
 22 32  1  0  0  0  0
 22  3  1  0  0  0  0
 23  1  1  0  0  0  0
 24  2  1  0  0  0  0
 27 15  1  0  0  0  0
 29 19  1  0  0  0  0
 30 20  1  0  0  0  0
M  END
>  <Pose>
3

>  <Score>
-4.28

$$$$

 OpenBabel10152117223D

 32 34  0  0  0  0  0  0  0  0999 V2000
   26.0330   35.0390   -1.3420 C   0  0  0  0  0  0  0  0  0  0  0  0
   27.0040   35.3450   -0.3840 C   0  0  0  0  0  0  0  0  0  0  0  0
   28.2810   34.8170   -0.5250 C   0  0  0  0  0  0  0  0  0  0  0  0
   28.5840   33.9870   -1.6010 C   0  0  0  0  0  0  0  0  0  0  0  0
   27.6270   33.6770   -2.5580 C   0  0  0  0  0  0  0  0  0  0  0  0
   26.3400   34.2150   -2.4420 C   0  0  0  0  0  0  0  0  0  0  0  0
   25.3220   33.9290   -3.4660 C   0  0  0  0  0  0  0  0  0  0  0  0
   25.0540   32.6750   -3.8840 C   0  0  0  0  0  0  0  0  0  0  0  0
   24.0420   32.5030   -4.9620 C   0  0  0  0  0  0  0  0  0  0  0  0
   23.7380   31.4070   -5.4270 O   0  0  0  0  0  0  0  0  0  0  0  0
   23.3960   33.7160   -5.4750 C   0  0  0  0  0  0  0  0  0  0  0  0
   22.4390   33.6610   -6.4950 C   0  0  0  0  0  0  0  0  0  0  0  0
   21.8380   34.8270   -6.9620 C   0  0  0  0  0  0  0  0  0  0  0  0
   22.2020   36.0470   -6.4000 C   0  0  0  0  0  0  0  0  0  0  0  0
   23.1540   36.1160   -5.3860 C   0  0  0  0  0  0  0  0  0  0  0  0
   23.7540   34.9440   -4.9250 C   0  0  0  0  0  0  0  0  0  0  0  0
   24.6940   35.0710   -3.9350 O   0  0  0  0  0  0  0  0  0  0  0  0
   21.6410   37.2160   -6.8230 O   0  0  0  0  0  0  0  0  0  0  0  0
   22.0430   32.4890   -7.0840 O   0  0  0  0  0  0  0  0  0  0  0  0
   25.6510   31.5310   -3.3830 O   0  0  0  0  0  0  0  0  0  0  0  0
   29.8420   33.4710   -1.7290 O   0  0  0  0  0  0  0  0  0  0  0  0
   29.2780   35.0870    0.3700 O   0  0  0  0  0  0  0  0  0  0  0  0
   25.0300   35.4470   -1.2270 H   0  0  0  0  0  0  0  0  0  0  0  0
   26.7450   35.9870    0.4530 H   0  0  0  0  0  0  0  0  0  0  0  0
   27.8920   33.0270   -3.3880 H   0  0  0  0  0  0  0  0  0  0  0  0
   21.0990   34.7630   -7.7540 H   0  0  0  0  0  0  0  0  0  0  0  0
   23.4240   37.0780   -4.9600 H   0  0  0  0  0  0  0  0  0  0  0  0
   20.7030   37.2250   -6.5660 H   0  0  0  0  0  0  0  0  0  0  0  0
   22.8140   32.1180   -7.5730 H   0  0  0  0  0  0  0  0  0  0  0  0
   25.4690   30.7870   -3.9810 H   0  0  0  0  0  0  0  0  0  0  0  0
   29.7230   32.6500   -2.2480 H   0  0  0  0  0  0  0  0  0  0  0  0
   29.0010   34.7650    1.2450 H   0  0  0  0  0  0  0  0  0  0  0  0
  1 23  1  0  0  0  0
  1  2  1  0  0  0  0
  2 24  1  0  0  0  0
  3  2  2  0  0  0  0
  3 22  1  0  0  0  0
  4  3  1  0  0  0  0
  5  6  1  0  0  0  0
  5  4  2  0  0  0  0
  6  1  2  0  0  0  0
  7  6  1  0  0  0  0
  8  7  2  0  0  0  0
  8 20  1  0  0  0  0
  9  8  1  0  0  0  0
 10  9  2  0  0  0  0
 11  9  1  0  0  0  0
 11 16  1  0  0  0  0
 12 11  2  0  0  0  0
 13 12  1  0  0  0  0
 13 14  2  0  0  0  0
 14 15  1  0  0  0  0
 15 27  1  0  0  0  0
 15 16  2  0  0  0  0
 16 17  1  0  0  0  0
 17  7  1  0  0  0  0
 18 28  1  0  0  0  0
 18 14  1  0  0  0  0
 19 12  1  0  0  0  0
 21  4  1  0  0  0  0
 22 32  1  0  0  0  0
 25  5  1  0  0  0  0
 26 13  1  0  0  0  0
 29 19  1  0  0  0  0
 30 20  1  0  0  0  0
 31 21  1  0  0  0  0
M  END
>  <Pose>
1

>  <Score>
-4.10

$$$$

 OpenBabel10152117223D

 32 34  0  0  0  0  0  0  0  0999 V2000
   23.6500   35.4290   -7.1430 C   0  0  0  0  0  0  0  0  0  0  0  0
   22.7140   35.9530   -8.0410 C   0  0  0  0  0  0  0  0  0  0  0  0
   21.3650   35.8980   -7.7170 C   0  0  0  0  0  0  0  0  0  0  0  0
   20.9520   35.3200   -6.5190 C   0  0  0  0  0  0  0  0  0  0  0  0
   21.8740   34.7980   -5.6200 C   0  0  0  0  0  0  0  0  0  0  0  0
   23.2390   34.8610   -5.9220 C   0  0  0  0  0  0  0  0  0  0  0  0
   24.2340   34.3470   -4.9660 C   0  0  0  0  0  0  0  0  0  0  0  0
   24.3420   33.0340   -4.6760 C   0  0  0  0  0  0  0  0  0  0  0  0
   25.3470   32.6290   -3.6560 C   0  0  0  0  0  0  0  0  0  0  0  0
   25.5130   31.4630   -3.3060 O   0  0  0  0  0  0  0  0  0  0  0  0
   26.1610   33.6930   -3.0560 C   0  0  0  0  0  0  0  0  0  0  0  0
   27.1270   33.4140   -2.0810 C   0  0  0  0  0  0  0  0  0  0  0  0
   27.8880   34.4420   -1.5310 C   0  0  0  0  0  0  0  0  0  0  0  0
   27.6770   35.7480   -1.9640 C   0  0  0  0  0  0  0  0  0  0  0  0
   26.7190   36.0370   -2.9330 C   0  0  0  0  0  0  0  0  0  0  0  0
   25.9570   35.0030   -3.4770 C   0  0  0  0  0  0  0  0  0  0  0  0
   25.0200   35.3470   -4.4170 O   0  0  0  0  0  0  0  0  0  0  0  0
   28.3980   36.7870   -1.4560 O   0  0  0  0  0  0  0  0  0  0  0  0
   27.3760   32.1500   -1.6180 O   0  0  0  0  0  0  0  0  0  0  0  0
   23.5860   32.0320   -5.2580 O   0  0  0  0  0  0  0  0  0  0  0  0
   19.6230   35.2690   -6.2110 O   0  0  0  0  0  0  0  0  0  0  0  0
   20.4020   36.4020   -8.5450 O   0  0  0  0  0  0  0  0  0  0  0  0
   24.7080   35.4660   -7.4010 H   0  0  0  0  0  0  0  0  0  0  0  0
   23.0570   36.3900   -8.9730 H   0  0  0  0  0  0  0  0  0  0  0  0
   21.5230   34.3540   -4.6920 H   0  0  0  0  0  0  0  0  0  0  0  0
   28.6310   34.2060   -0.7750 H   0  0  0  0  0  0  0  0  0  0  0  0
   26.5690   37.0630   -3.2570 H   0  0  0  0  0  0  0  0  0  0  0  0
   29.0960   37.0250   -2.0900 H   0  0  0  0  0  0  0  0  0  0  0  0
   28.0250   31.7240   -2.2250 H   0  0  0  0  0  0  0  0  0  0  0  0
   23.8700   31.9130   -6.1800 H   0  0  0  0  0  0  0  0  0  0  0  0
   19.5420   34.5260   -5.5800 H   0  0  0  0  0  0  0  0  0  0  0  0
   19.5460   36.3550   -8.0840 H   0  0  0  0  0  0  0  0  0  0  0  0
  1  6  1  0  0  0  0
  2  3  1  0  0  0  0
  2  1  2  0  0  0  0
  3  4  2  0  0  0  0
  4 21  1  0  0  0  0
  4  5  1  0  0  0  0
  5 25  1  0  0  0  0
  6  5  2  0  0  0  0
  6  7  1  0  0  0  0
  7  8  2  0  0  0  0
  7 17  1  0  0  0  0
  8  9  1  0  0  0  0
  9 10  2  0  0  0  0
  9 11  1  0  0  0  0
 11 12  1  0  0  0  0
 12 19  1  0  0  0  0
 12 13  2  0  0  0  0
 13 26  1  0  0  0  0
 14 13  1  0  0  0  0
 14 18  1  0  0  0  0
 15 14  2  0  0  0  0
 16 11  2  0  0  0  0
 16 15  1  0  0  0  0
 17 16  1  0  0  0  0
 20  8  1  0  0  0  0
 21 31  1  0  0  0  0
 22 32  1  0  0  0  0
 22  3  1  0  0  0  0
 23  1  1  0  0  0  0
 24  2  1  0  0  0  0
 27 15  1  0  0  0  0
 28 18  1  0  0  0  0
 29 19  1  0  0  0  0
 30 20  1  0  0  0  0
M  END
>  <Pose>
1

>  <Score>
-4.04

$$$$
