
 OpenBabel10152117223D

 32 34  0  0  0  0  0  0  0  0999 V2000
   21.0550    2.7070   -0.5820 C   0  0  0  0  0  0  0  0  0  0  0  0
   21.0830    3.5580   -1.6920 C   0  0  0  0  0  0  0  0  0  0  0  0
   20.9650    4.9270   -1.4950 C   0  0  0  0  0  0  0  0  0  0  0  0
   20.8100    5.4430   -0.2100 C   0  0  0  0  0  0  0  0  0  0  0  0
   20.7810    4.6060    0.8990 C   0  0  0  0  0  0  0  0  0  0  0  0
   20.9170    3.2250    0.7200 C   0  0  0  0  0  0  0  0  0  0  0  0
   20.9270    2.3240    1.8850 C   0  0  0  0  0  0  0  0  0  0  0  0
   19.8310    1.6420    2.2760 C   0  0  0  0  0  0  0  0  0  0  0  0
   19.9370    0.8000    3.4990 C   0  0  0  0  0  0  0  0  0  0  0  0
   18.9940    0.1540    3.9500 O   0  0  0  0  0  0  0  0  0  0  0  0
   21.2380    0.7610    4.1760 C   0  0  0  0  0  0  0  0  0  0  0  0
   21.4360    0.0060    5.3380 C   0  0  0  0  0  0  0  0  0  0  0  0
   22.6820   -0.0160    5.9600 C   0  0  0  0  0  0  0  0  0  0  0  0
   23.7270    0.7200    5.4080 C   0  0  0  0  0  0  0  0  0  0  0  0
   23.5420    1.4760    4.2530 C   0  0  0  0  0  0  0  0  0  0  0  0
   22.2900    1.4970    3.6380 C   0  0  0  0  0  0  0  0  0  0  0  0
   22.1610    2.2670    2.5110 O   0  0  0  0  0  0  0  0  0  0  0  0
   24.9650    0.7290    5.9800 O   0  0  0  0  0  0  0  0  0  0  0  0
   20.4460   -0.7360    5.9240 O   0  0  0  0  0  0  0  0  0  0  0  0
   18.6110    1.6660    1.6230 O   0  0  0  0  0  0  0  0  0  0  0  0
   20.6920    6.7910   -0.0280 O   0  0  0  0  0  0  0  0  0  0  0  0
   20.9980    5.8130   -2.5350 O   0  0  0  0  0  0  0  0  0  0  0  0
   21.1410    1.6330   -0.7380 H   0  0  0  0  0  0  0  0  0  0  0  0
   21.1960    3.1360   -2.6850 H   0  0  0  0  0  0  0  0  0  0  0  0
   20.6610    5.0360    1.8890 H   0  0  0  0  0  0  0  0  0  0  0  0
   22.8160   -0.6060    6.8610 H   0  0  0  0  0  0  0  0  0  0  0  0
   24.3700    2.0440    3.8390 H   0  0  0  0  0  0  0  0  0  0  0  0
   25.1060   -0.1180    6.4350 H   0  0  0  0  0  0  0  0  0  0  0  0
   19.9680   -0.1580    6.5630 H   0  0  0  0  0  0  0  0  0  0  0  0
   18.5580    0.9060    1.0190 H   0  0  0  0  0  0  0  0  0  0  0  0
   21.5970    7.0920    0.1930 H   0  0  0  0  0  0  0  0  0  0  0  0
   21.8040    6.3530   -2.4540 H   0  0  0  0  0  0  0  0  0  0  0  0
  1  6  1  0  0  0  0
  2  3  1  0  0  0  0
  2  1  2  0  0  0  0
  3  4  2  0  0  0  0
  4 21  1  0  0  0  0
  4  5  1  0  0  0  0
  5 25  1  0  0  0  0
  6  5  2  0  0  0  0
  6  7  1  0  0  0  0
  7  8  2  0  0  0  0
  7 17  1  0  0  0  0
  8  9  1  0  0  0  0
  9 10  2  0  0  0  0
  9 11  1  0  0  0  0
 11 12  1  0  0  0  0
 12 19  1  0  0  0  0
 12 13  2  0  0  0  0
 13 26  1  0  0  0  0
 14 13  1  0  0  0  0
 14 18  1  0  0  0  0
 15 14  2  0  0  0  0
 16 11  2  0  0  0  0
 16 15  1  0  0  0  0
 17 16  1  0  0  0  0
 18 28  1  0  0  0  0
 19 29  1  0  0  0  0
 20  8  1  0  0  0  0
 21 31  1  0  0  0  0
 22 32  1  0  0  0  0
 22  3  1  0  0  0  0
 23  1  1  0  0  0  0
 24  2  1  0  0  0  0
 27 15  1  0  0  0  0
 30 20  1  0  0  0  0
M  END
>  <Pose>
2

>  <Score>
-6.18

$$$$

 OpenBabel10152117223D

 32 34  0  0  0  0  0  0  0  0999 V2000
   19.3920    3.4400   -0.5560 C   0  0  0  0  0  0  0  0  0  0  0  0
   20.0950    4.2510   -1.4530 C   0  0  0  0  0  0  0  0  0  0  0  0
   20.6610    5.4320   -0.9910 C   0  0  0  0  0  0  0  0  0  0  0  0
   20.5210    5.8050    0.3430 C   0  0  0  0  0  0  0  0  0  0  0  0
   19.8250    5.0060    1.2410 C   0  0  0  0  0  0  0  0  0  0  0  0
   19.2630    3.8030    0.7970 C   0  0  0  0  0  0  0  0  0  0  0  0
   18.5540    2.9240    1.7420 C   0  0  0  0  0  0  0  0  0  0  0  0
   17.2080    2.8660    1.7990 C   0  0  0  0  0  0  0  0  0  0  0  0
   16.5940    1.9820    2.8270 C   0  0  0  0  0  0  0  0  0  0  0  0
   15.3790    1.8700    2.9750 O   0  0  0  0  0  0  0  0  0  0  0  0
   17.5060    1.2230    3.6900 C   0  0  0  0  0  0  0  0  0  0  0  0
   17.0260    0.3710    4.6930 C   0  0  0  0  0  0  0  0  0  0  0  0
   17.9140   -0.3410    5.4960 C   0  0  0  0  0  0  0  0  0  0  0  0
   19.2820   -0.1960    5.2870 C   0  0  0  0  0  0  0  0  0  0  0  0
   19.7710    0.6480    4.2930 C   0  0  0  0  0  0  0  0  0  0  0  0
   18.8770    1.3620    3.4950 C   0  0  0  0  0  0  0  0  0  0  0  0
   19.4140    2.1880    2.5410 O   0  0  0  0  0  0  0  0  0  0  0  0
   20.1890   -0.8730    6.0470 O   0  0  0  0  0  0  0  0  0  0  0  0
   15.6920    0.1900    4.9430 O   0  0  0  0  0  0  0  0  0  0  0  0
   16.3520    3.5680    0.9700 O   0  0  0  0  0  0  0  0  0  0  0  0
   21.0800    6.9700    0.7860 O   0  0  0  0  0  0  0  0  0  0  0  0
   21.3710    6.2630   -1.8130 O   0  0  0  0  0  0  0  0  0  0  0  0
   18.9420    2.5170   -0.9210 H   0  0  0  0  0  0  0  0  0  0  0  0
   20.1840    3.9470   -2.4910 H   0  0  0  0  0  0  0  0  0  0  0  0
   19.7330    5.3220    2.2770 H   0  0  0  0  0  0  0  0  0  0  0  0
   17.5220   -0.9950    6.2690 H   0  0  0  0  0  0  0  0  0  0  0  0
   20.8430    0.7480    4.1460 H   0  0  0  0  0  0  0  0  0  0  0  0
   19.9470   -0.7770    6.9840 H   0  0  0  0  0  0  0  0  0  0  0  0
   15.4490    0.7430    5.7210 H   0  0  0  0  0  0  0  0  0  0  0  0
   16.6000    4.5080    0.9760 H   0  0  0  0  0  0  0  0  0  0  0  0
   21.4450    7.3910   -0.0180 H   0  0  0  0  0  0  0  0  0  0  0  0
   21.7170    6.9990   -1.2790 H   0  0  0  0  0  0  0  0  0  0  0  0
  1  6  1  0  0  0  0
  2  3  1  0  0  0  0
  2  1  2  0  0  0  0
  3  4  2  0  0  0  0
  4 21  1  0  0  0  0
  4  5  1  0  0  0  0
  5 25  1  0  0  0  0
  6  5  2  0  0  0  0
  6  7  1  0  0  0  0
  7  8  2  0  0  0  0
  7 17  1  0  0  0  0
  8  9  1  0  0  0  0
  9 10  2  0  0  0  0
  9 11  1  0  0  0  0
 11 12  1  0  0  0  0
 12 19  1  0  0  0  0
 12 13  2  0  0  0  0
 13 26  1  0  0  0  0
 14 13  1  0  0  0  0
 14 18  1  0  0  0  0
 15 14  2  0  0  0  0
 16 11  2  0  0  0  0
 16 15  1  0  0  0  0
 17 16  1  0  0  0  0
 18 28  1  0  0  0  0
 19 29  1  0  0  0  0
 20 30  1  0  0  0  0
 20  8  1  0  0  0  0
 22 32  1  0  0  0  0
 22  3  1  0  0  0  0
 23  1  1  0  0  0  0
 24  2  1  0  0  0  0
 27 15  1  0  0  0  0
 31 21  1  0  0  0  0
M  END
>  <Pose>
1

>  <Score>
-5.80

$$$$

 OpenBabel10152117223D

 32 34  0  0  0  0  0  0  0  0999 V2000
   17.7110    0.9790    3.3400 C   0  0  0  0  0  0  0  0  0  0  0  0
   16.3150    0.8950    3.3220 C   0  0  0  0  0  0  0  0  0  0  0  0
   15.6690    0.1870    4.3280 C   0  0  0  0  0  0  0  0  0  0  0  0
   16.4050   -0.4380    5.3320 C   0  0  0  0  0  0  0  0  0  0  0  0
   17.7910   -0.3600    5.3590 C   0  0  0  0  0  0  0  0  0  0  0  0
   18.4570    0.3650    4.3630 C   0  0  0  0  0  0  0  0  0  0  0  0
   19.9240    0.4910    4.3950 C   0  0  0  0  0  0  0  0  0  0  0  0
   20.6730   -0.0540    5.3760 C   0  0  0  0  0  0  0  0  0  0  0  0
   22.1420    0.1790    5.3390 C   0  0  0  0  0  0  0  0  0  0  0  0
   22.9110   -0.2580    6.1930 O   0  0  0  0  0  0  0  0  0  0  0  0
   22.6680    0.9700    4.2210 C   0  0  0  0  0  0  0  0  0  0  0  0
   24.0350    1.2520    4.1020 C   0  0  0  0  0  0  0  0  0  0  0  0
   24.5080    2.0030    3.0300 C   0  0  0  0  0  0  0  0  0  0  0  0
   23.6060    2.4670    2.0780 C   0  0  0  0  0  0  0  0  0  0  0  0
   22.2440    2.1950    2.1850 C   0  0  0  0  0  0  0  0  0  0  0  0
   21.7760    1.4450    3.2650 C   0  0  0  0  0  0  0  0  0  0  0  0
   20.4250    1.2180    3.3270 O   0  0  0  0  0  0  0  0  0  0  0  0
   24.0220    3.2060    1.0100 O   0  0  0  0  0  0  0  0  0  0  0  0
   24.9660    0.8210    5.0090 O   0  0  0  0  0  0  0  0  0  0  0  0
   20.1740   -0.8170    6.4170 O   0  0  0  0  0  0  0  0  0  0  0  0
   15.7600   -1.1330    6.3140 O   0  0  0  0  0  0  0  0  0  0  0  0
   14.3080    0.0770    4.3750 O   0  0  0  0  0  0  0  0  0  0  0  0
   18.2170    1.5290    2.5470 H   0  0  0  0  0  0  0  0  0  0  0  0
   15.7610    1.3810    2.5260 H   0  0  0  0  0  0  0  0  0  0  0  0
   18.3400   -0.8560    6.1550 H   0  0  0  0  0  0  0  0  0  0  0  0
   25.5710    2.2120    2.9560 H   0  0  0  0  0  0  0  0  0  0  0  0
   21.5560    2.5670    1.4320 H   0  0  0  0  0  0  0  0  0  0  0  0
   24.1890    4.1180    1.3050 H   0  0  0  0  0  0  0  0  0  0  0  0
   24.4910    0.3760    5.7480 H   0  0  0  0  0  0  0  0  0  0  0  0
   19.8180   -0.2280    7.1030 H   0  0  0  0  0  0  0  0  0  0  0  0
   15.9050   -0.6080    7.1270 H   0  0  0  0  0  0  0  0  0  0  0  0
   13.9620    0.7890    4.9410 H   0  0  0  0  0  0  0  0  0  0  0  0
  1  6  1  0  0  0  0
  2  1  2  0  0  0  0
  2  3  1  0  0  0  0
  3 22  1  0  0  0  0
  3  4  2  0  0  0  0
  4  5  1  0  0  0  0
  4 21  1  0  0  0  0
  5 25  1  0  0  0  0
  6  7  1  0  0  0  0
  6  5  2  0  0  0  0
  7  8  2  0  0  0  0
  8 20  1  0  0  0  0
  9  8  1  0  0  0  0
  9 10  2  0  0  0  0
 11  9  1  0  0  0  0
 12 11  1  0  0  0  0
 12 19  1  0  0  0  0
 13 12  2  0  0  0  0
 14 15  2  0  0  0  0
 14 13  1  0  0  0  0
 15 16  1  0  0  0  0
 16 17  1  0  0  0  0
 16 11  2  0  0  0  0
 17  7  1  0  0  0  0
 18 28  1  0  0  0  0
 18 14  1  0  0  0  0
 19 29  1  0  0  0  0
 20 30  1  0  0  0  0
 21 31  1  0  0  0  0
 22 32  1  0  0  0  0
 23  1  1  0  0  0  0
 24  2  1  0  0  0  0
 26 13  1  0  0  0  0
 27 15  1  0  0  0  0
M  END
>  <Pose>
1

>  <Score>
-5.74

$$$$

 OpenBabel10152117223D

 32 34  0  0  0  0  0  0  0  0999 V2000
   17.0210    2.2400    3.1120 C   0  0  0  0  0  0  0  0  0  0  0  0
   15.7470    2.4320    2.5690 C   0  0  0  0  0  0  0  0  0  0  0  0
   15.1250    1.3730    1.9200 C   0  0  0  0  0  0  0  0  0  0  0  0
   15.7670    0.1430    1.8060 C   0  0  0  0  0  0  0  0  0  0  0  0
   17.0330   -0.0580    2.3420 C   0  0  0  0  0  0  0  0  0  0  0  0
   17.6670    0.9930    3.0150 C   0  0  0  0  0  0  0  0  0  0  0  0
   18.9920    0.7900    3.6240 C   0  0  0  0  0  0  0  0  0  0  0  0
   19.1490    0.2090    4.8310 C   0  0  0  0  0  0  0  0  0  0  0  0
   20.5290    0.1000    5.3760 C   0  0  0  0  0  0  0  0  0  0  0  0
   20.7790   -0.3950    6.4720 O   0  0  0  0  0  0  0  0  0  0  0  0
   21.6210    0.6180    4.5440 C   0  0  0  0  0  0  0  0  0  0  0  0
   22.9540    0.5700    4.9720 C   0  0  0  0  0  0  0  0  0  0  0  0
   23.9720    1.0650    4.1610 C   0  0  0  0  0  0  0  0  0  0  0  0
   23.6470    1.6060    2.9200 C   0  0  0  0  0  0  0  0  0  0  0  0
   22.3260    1.6600    2.4840 C   0  0  0  0  0  0  0  0  0  0  0  0
   21.3100    1.1660    3.3030 C   0  0  0  0  0  0  0  0  0  0  0  0
   20.0270    1.2560    2.8290 O   0  0  0  0  0  0  0  0  0  0  0  0
   24.6090    2.1020    2.0910 O   0  0  0  0  0  0  0  0  0  0  0  0
   23.3310    0.0490    6.1810 O   0  0  0  0  0  0  0  0  0  0  0  0
   18.1170   -0.2960    5.6030 O   0  0  0  0  0  0  0  0  0  0  0  0
   15.1470   -0.8910    1.1640 O   0  0  0  0  0  0  0  0  0  0  0  0
   13.8760    1.4910    1.3790 O   0  0  0  0  0  0  0  0  0  0  0  0
   17.5120    3.0730    3.6150 H   0  0  0  0  0  0  0  0  0  0  0  0
   15.2670    3.4010    2.6610 H   0  0  0  0  0  0  0  0  0  0  0  0
   17.5100   -1.0290    2.2390 H   0  0  0  0  0  0  0  0  0  0  0  0
   24.9990    1.0200    4.5110 H   0  0  0  0  0  0  0  0  0  0  0  0
   22.0930    2.0870    1.5130 H   0  0  0  0  0  0  0  0  0  0  0  0
   24.1950    2.7200    1.4640 H   0  0  0  0  0  0  0  0  0  0  0  0
   24.2970   -0.1410    6.1440 H   0  0  0  0  0  0  0  0  0  0  0  0
   17.9790    0.2840    6.3710 H   0  0  0  0  0  0  0  0  0  0  0  0
   15.4500   -0.8240    0.2360 H   0  0  0  0  0  0  0  0  0  0  0  0
   13.9550    1.9360    0.5170 H   0  0  0  0  0  0  0  0  0  0  0  0
  1 23  1  0  0  0  0
  2 24  1  0  0  0  0
  2  1  2  0  0  0  0
  3  2  1  0  0  0  0
  4  3  2  0  0  0  0
  4  5  1  0  0  0  0
  5  6  2  0  0  0  0
  6  1  1  0  0  0  0
  6  7  1  0  0  0  0
  7  8  2  0  0  0  0
  8  9  1  0  0  0  0
  8 20  1  0  0  0  0
  9 10  2  0  0  0  0
 11 12  1  0  0  0  0
 11  9  1  0  0  0  0
 12 19  1  0  0  0  0
 13 26  1  0  0  0  0
 13 12  2  0  0  0  0
 14 13  1  0  0  0  0
 15 14  2  0  0  0  0
 15 16  1  0  0  0  0
 16 11  2  0  0  0  0
 17 16  1  0  0  0  0
 17  7  1  0  0  0  0
 18 14  1  0  0  0  0
 20 30  1  0  0  0  0
 21  4  1  0  0  0  0
 22  3  1  0  0  0  0
 25  5  1  0  0  0  0
 27 15  1  0  0  0  0
 28 18  1  0  0  0  0
 29 19  1  0  0  0  0
 31 21  1  0  0  0  0
 32 22  1  0  0  0  0
M  END
>  <Pose>
1

>  <Score>
-5.54

$$$$
