
 OpenBabel10152117223D

 32 34  0  0  0  0  0  0  0  0999 V2000
   26.4030   -2.9540   14.1100 C   0  0  0  0  0  0  0  0  0  0  0  0
   25.0210   -2.7800   13.9900 C   0  0  0  0  0  0  0  0  0  0  0  0
   24.3300   -3.5050   13.0290 C   0  0  0  0  0  0  0  0  0  0  0  0
   25.0090   -4.3860   12.1900 C   0  0  0  0  0  0  0  0  0  0  0  0
   26.3810   -4.5670   12.3000 C   0  0  0  0  0  0  0  0  0  0  0  0
   27.0910   -3.8570   13.2760 C   0  0  0  0  0  0  0  0  0  0  0  0
   28.5400   -4.0630   13.4350 C   0  0  0  0  0  0  0  0  0  0  0  0
   29.0480   -5.0510   14.2000 C   0  0  0  0  0  0  0  0  0  0  0  0
   30.5270   -5.1370   14.3320 C   0  0  0  0  0  0  0  0  0  0  0  0
   31.0900   -5.9870   15.0180 O   0  0  0  0  0  0  0  0  0  0  0  0
   31.3250   -4.1460   13.6000 C   0  0  0  0  0  0  0  0  0  0  0  0
   32.7230   -4.1380   13.6670 C   0  0  0  0  0  0  0  0  0  0  0  0
   33.4570   -3.1890   12.9590 C   0  0  0  0  0  0  0  0  0  0  0  0
   32.7810   -2.2520   12.1830 C   0  0  0  0  0  0  0  0  0  0  0  0
   31.3900   -2.2490   12.1090 C   0  0  0  0  0  0  0  0  0  0  0  0
   30.6610   -3.2000   12.8240 C   0  0  0  0  0  0  0  0  0  0  0  0
   29.2950   -3.1440   12.7250 O   0  0  0  0  0  0  0  0  0  0  0  0
   33.4550   -1.3030   11.4720 O   0  0  0  0  0  0  0  0  0  0  0  0
   33.4400   -5.0350   14.4130 O   0  0  0  0  0  0  0  0  0  0  0  0
   28.2920   -5.9950   14.8720 O   0  0  0  0  0  0  0  0  0  0  0  0
   24.3200   -5.0930   11.2460 O   0  0  0  0  0  0  0  0  0  0  0  0
   22.9780   -3.3900   12.8690 O   0  0  0  0  0  0  0  0  0  0  0  0
   26.9460   -2.3800   14.8600 H   0  0  0  0  0  0  0  0  0  0  0  0
   24.5130   -2.0820   14.6480 H   0  0  0  0  0  0  0  0  0  0  0  0
   26.8850   -5.2620   11.6330 H   0  0  0  0  0  0  0  0  0  0  0  0
   34.5400   -3.1970   13.0250 H   0  0  0  0  0  0  0  0  0  0  0  0
   30.8810   -1.5090   11.4990 H   0  0  0  0  0  0  0  0  0  0  0  0
   33.5220   -1.5940   10.5470 H   0  0  0  0  0  0  0  0  0  0  0  0
   33.2990   -5.9320   14.0310 H   0  0  0  0  0  0  0  0  0  0  0  0
   27.4960   -6.1960   14.3530 H   0  0  0  0  0  0  0  0  0  0  0  0
   24.2850   -6.0060   11.5950 H   0  0  0  0  0  0  0  0  0  0  0  0
   22.8050   -2.9530   12.0170 H   0  0  0  0  0  0  0  0  0  0  0  0
  1 23  1  0  0  0  0
  2  1  1  0  0  0  0
  2 24  1  0  0  0  0
  3  2  2  0  0  0  0
  4  5  2  0  0  0  0
  4  3  1  0  0  0  0
  5  6  1  0  0  0  0
  6  7  1  0  0  0  0
  6  1  2  0  0  0  0
  7  8  2  0  0  0  0
  8  9  1  0  0  0  0
  8 20  1  0  0  0  0
  9 10  2  0  0  0  0
 11 12  1  0  0  0  0
 11  9  1  0  0  0  0
 12 19  1  0  0  0  0
 13 26  1  0  0  0  0
 13 12  2  0  0  0  0
 14 13  1  0  0  0  0
 15 14  2  0  0  0  0
 15 16  1  0  0  0  0
 16 11  2  0  0  0  0
 17 16  1  0  0  0  0
 17  7  1  0  0  0  0
 18 14  1  0  0  0  0
 21 31  1  0  0  0  0
 21  4  1  0  0  0  0
 22  3  1  0  0  0  0
 25  5  1  0  0  0  0
 27 15  1  0  0  0  0
 28 18  1  0  0  0  0
 29 19  1  0  0  0  0
 30 20  1  0  0  0  0
 32 22  1  0  0  0  0
M  END
>  <Pose>
1

>  <Score>
-4.62

$$$$

 OpenBabel10152117223D

 32 34  0  0  0  0  0  0  0  0999 V2000
   28.9070   -4.4600   13.8350 C   0  0  0  0  0  0  0  0  0  0  0  0
   30.2970   -4.5760   13.7380 C   0  0  0  0  0  0  0  0  0  0  0  0
   30.9790   -3.7700   12.8370 C   0  0  0  0  0  0  0  0  0  0  0  0
   30.2850   -2.8660   12.0360 C   0  0  0  0  0  0  0  0  0  0  0  0
   28.9050   -2.7430   12.1250 C   0  0  0  0  0  0  0  0  0  0  0  0
   28.2030   -3.5350   13.0410 C   0  0  0  0  0  0  0  0  0  0  0  0
   26.7440   -3.3930   13.1770 C   0  0  0  0  0  0  0  0  0  0  0  0
   25.8790   -4.0230   12.3560 C   0  0  0  0  0  0  0  0  0  0  0  0
   24.4260   -3.7690   12.5490 C   0  0  0  0  0  0  0  0  0  0  0  0
   23.5570   -4.2780   11.8450 O   0  0  0  0  0  0  0  0  0  0  0  0
   24.0430   -2.8620   13.6370 C   0  0  0  0  0  0  0  0  0  0  0  0
   22.7020   -2.5510   13.8940 C   0  0  0  0  0  0  0  0  0  0  0  0
   22.3650   -1.6900   14.9360 C   0  0  0  0  0  0  0  0  0  0  0  0
   23.3790   -1.1450   15.7180 C   0  0  0  0  0  0  0  0  0  0  0  0
   24.7160   -1.4460   15.4720 C   0  0  0  0  0  0  0  0  0  0  0  0
   25.0470   -2.3060   14.4240 C   0  0  0  0  0  0  0  0  0  0  0  0
   26.3790   -2.5570   14.2190 O   0  0  0  0  0  0  0  0  0  0  0  0
   23.0990   -0.2980   16.7490 O   0  0  0  0  0  0  0  0  0  0  0  0
   21.6650   -3.0580   13.1580 O   0  0  0  0  0  0  0  0  0  0  0  0
   26.2440   -4.8940   11.3440 O   0  0  0  0  0  0  0  0  0  0  0  0
   30.9670   -2.0800   11.1510 O   0  0  0  0  0  0  0  0  0  0  0  0
   32.3380   -3.8260   12.7020 O   0  0  0  0  0  0  0  0  0  0  0  0
   28.3710   -5.0980   14.5370 H   0  0  0  0  0  0  0  0  0  0  0  0
   30.8180   -5.2930   14.3650 H   0  0  0  0  0  0  0  0  0  0  0  0
   28.3900   -2.0290   11.4880 H   0  0  0  0  0  0  0  0  0  0  0  0
   21.3200   -1.4610   15.1180 H   0  0  0  0  0  0  0  0  0  0  0  0
   25.4930   -1.0090   16.0930 H   0  0  0  0  0  0  0  0  0  0  0  0
   22.2210   -0.5160   17.1040 H   0  0  0  0  0  0  0  0  0  0  0  0
   21.7920   -2.7830   12.2200 H   0  0  0  0  0  0  0  0  0  0  0  0
   25.4460   -5.3100   10.9770 H   0  0  0  0  0  0  0  0  0  0  0  0
   30.2700   -1.6260   10.6350 H   0  0  0  0  0  0  0  0  0  0  0  0
   32.6060   -3.1830   12.0230 H   0  0  0  0  0  0  0  0  0  0  0  0
  1 23  1  0  0  0  0
  2  1  1  0  0  0  0
  2 24  1  0  0  0  0
  3  2  2  0  0  0  0
  4  5  2  0  0  0  0
  4  3  1  0  0  0  0
  5  6  1  0  0  0  0
  6  7  1  0  0  0  0
  6  1  2  0  0  0  0
  7 17  1  0  0  0  0
  8  9  1  0  0  0  0
  8  7  2  0  0  0  0
  9 11  1  0  0  0  0
 10  9  2  0  0  0  0
 11 12  2  0  0  0  0
 11 16  1  0  0  0  0
 12 13  1  0  0  0  0
 13 26  1  0  0  0  0
 13 14  2  0  0  0  0
 14 18  1  0  0  0  0
 15 14  1  0  0  0  0
 15 27  1  0  0  0  0
 16 15  2  0  0  0  0
 17 16  1  0  0  0  0
 18 28  1  0  0  0  0
 19 12  1  0  0  0  0
 20  8  1  0  0  0  0
 21  4  1  0  0  0  0
 22  3  1  0  0  0  0
 25  5  1  0  0  0  0
 29 19  1  0  0  0  0
 30 20  1  0  0  0  0
 31 21  1  0  0  0  0
 32 22  1  0  0  0  0
M  END
>  <Pose>
1

>  <Score>
-4.41

$$$$

 OpenBabel10152117223D

 32 34  0  0  0  0  0  0  0  0999 V2000
   22.3680   -0.7690   16.7990 C   0  0  0  0  0  0  0  0  0  0  0  0
   21.8160    0.2090   17.6320 C   0  0  0  0  0  0  0  0  0  0  0  0
   22.3710    1.4820   17.6380 C   0  0  0  0  0  0  0  0  0  0  0  0
   23.4680    1.7750   16.8320 C   0  0  0  0  0  0  0  0  0  0  0  0
   24.0240    0.8110   16.0010 C   0  0  0  0  0  0  0  0  0  0  0  0
   23.4660   -0.4720   15.9690 C   0  0  0  0  0  0  0  0  0  0  0  0
   24.0170   -1.4970   15.0660 C   0  0  0  0  0  0  0  0  0  0  0  0
   23.3940   -1.8630   13.9270 C   0  0  0  0  0  0  0  0  0  0  0  0
   24.0120   -2.9460   13.1150 C   0  0  0  0  0  0  0  0  0  0  0  0
   23.5180   -3.3670   12.0710 O   0  0  0  0  0  0  0  0  0  0  0  0
   25.2690   -3.5220   13.6090 C   0  0  0  0  0  0  0  0  0  0  0  0
   25.9230   -4.5510   12.9210 C   0  0  0  0  0  0  0  0  0  0  0  0
   27.1160   -5.0770   13.4100 C   0  0  0  0  0  0  0  0  0  0  0  0
   27.6490   -4.5640   14.5890 C   0  0  0  0  0  0  0  0  0  0  0  0
   27.0080   -3.5410   15.2820 C   0  0  0  0  0  0  0  0  0  0  0  0
   25.8100   -3.0210   14.7890 C   0  0  0  0  0  0  0  0  0  0  0  0
   25.2150   -2.0240   15.5180 O   0  0  0  0  0  0  0  0  0  0  0  0
   28.8150   -5.0460   15.1060 O   0  0  0  0  0  0  0  0  0  0  0  0
   25.4440   -5.0930   11.7580 O   0  0  0  0  0  0  0  0  0  0  0  0
   22.2200   -1.3040   13.4550 O   0  0  0  0  0  0  0  0  0  0  0  0
   24.0080    3.0290   16.8470 O   0  0  0  0  0  0  0  0  0  0  0  0
   21.8700    2.4850   18.4200 O   0  0  0  0  0  0  0  0  0  0  0  0
   21.9370   -1.7690   16.8000 H   0  0  0  0  0  0  0  0  0  0  0  0
   20.9660   -0.0420   18.2590 H   0  0  0  0  0  0  0  0  0  0  0  0
   24.8790    1.0680   15.3810 H   0  0  0  0  0  0  0  0  0  0  0  0
   27.6070   -5.8760   12.8640 H   0  0  0  0  0  0  0  0  0  0  0  0
   27.4400   -3.1550   16.2010 H   0  0  0  0  0  0  0  0  0  0  0  0
   29.3360   -4.3020   15.4530 H   0  0  0  0  0  0  0  0  0  0  0  0
   24.9600   -5.9210   11.9840 H   0  0  0  0  0  0  0  0  0  0  0  0
   21.8300   -1.8950   12.7890 H   0  0  0  0  0  0  0  0  0  0  0  0
   23.4920    3.5130   17.5230 H   0  0  0  0  0  0  0  0  0  0  0  0
   22.2540    3.3280   18.1210 H   0  0  0  0  0  0  0  0  0  0  0  0
  1 23  1  0  0  0  0
  1  2  1  0  0  0  0
  2  3  2  0  0  0  0
  2 24  1  0  0  0  0
  3 22  1  0  0  0  0
  4 21  1  0  0  0  0
  4  3  1  0  0  0  0
  5  4  2  0  0  0  0
  6  5  1  0  0  0  0
  6  1  2  0  0  0  0
  7 17  1  0  0  0  0
  7  6  1  0  0  0  0
  8  7  2  0  0  0  0
  9 11  1  0  0  0  0
  9  8  1  0  0  0  0
 10  9  2  0  0  0  0
 11 16  1  0  0  0  0
 12 13  1  0  0  0  0
 12 11  2  0  0  0  0
 13 14  2  0  0  0  0
 14 18  1  0  0  0  0
 14 15  1  0  0  0  0
 15 27  1  0  0  0  0
 16 15  2  0  0  0  0
 16 17  1  0  0  0  0
 18 28  1  0  0  0  0
 19 29  1  0  0  0  0
 19 12  1  0  0  0  0
 20  8  1  0  0  0  0
 21 31  1  0  0  0  0
 25  5  1  0  0  0  0
 26 13  1  0  0  0  0
 30 20  1  0  0  0  0
 32 22  1  0  0  0  0
M  END
>  <Pose>
1

>  <Score>
-4.38

$$$$

 OpenBabel10152117223D

 32 34  0  0  0  0  0  0  0  0999 V2000
   25.3900   -3.0010   14.3100 C   0  0  0  0  0  0  0  0  0  0  0  0
   24.2430   -3.6430   13.8300 C   0  0  0  0  0  0  0  0  0  0  0  0
   24.3340   -4.4160   12.6800 C   0  0  0  0  0  0  0  0  0  0  0  0
   25.5490   -4.5390   12.0100 C   0  0  0  0  0  0  0  0  0  0  0  0
   26.6930   -3.9060   12.4780 C   0  0  0  0  0  0  0  0  0  0  0  0
   26.6230   -3.1380   13.6460 C   0  0  0  0  0  0  0  0  0  0  0  0
   27.8330   -2.4900   14.1790 C   0  0  0  0  0  0  0  0  0  0  0  0
   28.9010   -3.1960   14.6040 C   0  0  0  0  0  0  0  0  0  0  0  0
   30.0510   -2.4420   15.1730 C   0  0  0  0  0  0  0  0  0  0  0  0
   31.0630   -2.9900   15.6040 O   0  0  0  0  0  0  0  0  0  0  0  0
   29.9420   -0.9800   15.2100 C   0  0  0  0  0  0  0  0  0  0  0  0
   30.9660   -0.1820   15.7350 C   0  0  0  0  0  0  0  0  0  0  0  0
   30.8380    1.2050   15.7550 C   0  0  0  0  0  0  0  0  0  0  0  0
   29.6810    1.7860   15.2450 C   0  0  0  0  0  0  0  0  0  0  0  0
   28.6550    1.0030   14.7210 C   0  0  0  0  0  0  0  0  0  0  0  0
   28.7870   -0.3860   14.7080 C   0  0  0  0  0  0  0  0  0  0  0  0
   27.7420   -1.1080   14.1920 O   0  0  0  0  0  0  0  0  0  0  0  0
   29.5100    3.1390   15.2430 O   0  0  0  0  0  0  0  0  0  0  0  0
   32.1250   -0.6990   16.2490 O   0  0  0  0  0  0  0  0  0  0  0  0
   29.0080   -4.5750   14.5480 O   0  0  0  0  0  0  0  0  0  0  0  0
   25.6270   -5.2990   10.8780 O   0  0  0  0  0  0  0  0  0  0  0  0
   23.2550   -5.0780   12.1670 O   0  0  0  0  0  0  0  0  0  0  0  0
   25.3160   -2.3890   15.2080 H   0  0  0  0  0  0  0  0  0  0  0  0
   23.3040   -3.5260   14.3620 H   0  0  0  0  0  0  0  0  0  0  0  0
   27.6280   -4.0210   11.9350 H   0  0  0  0  0  0  0  0  0  0  0  0
   31.6430    1.8060   16.1670 H   0  0  0  0  0  0  0  0  0  0  0  0
   27.7590    1.4760   14.3290 H   0  0  0  0  0  0  0  0  0  0  0  0
   29.9150    3.5040   14.4370 H   0  0  0  0  0  0  0  0  0  0  0  0
   32.2890   -0.2710   17.1220 H   0  0  0  0  0  0  0  0  0  0  0  0
   28.2950   -4.9720   15.0750 H   0  0  0  0  0  0  0  0  0  0  0  0
   25.1730   -6.1350   11.1080 H   0  0  0  0  0  0  0  0  0  0  0  0
   23.5720   -5.7130   11.5020 H   0  0  0  0  0  0  0  0  0  0  0  0
  1 23  1  0  0  0  0
  2  1  1  0  0  0  0
  2 24  1  0  0  0  0
  3  2  2  0  0  0  0
  4  5  2  0  0  0  0
  4  3  1  0  0  0  0
  5  6  1  0  0  0  0
  6  7  1  0  0  0  0
  6  1  2  0  0  0  0
  7 17  1  0  0  0  0
  7  8  2  0  0  0  0
  8  9  1  0  0  0  0
  9 11  1  0  0  0  0
  9 10  2  0  0  0  0
 11 12  1  0  0  0  0
 12 13  2  0  0  0  0
 12 19  1  0  0  0  0
 13 26  1  0  0  0  0
 14 13  1  0  0  0  0
 15 14  2  0  0  0  0
 16 15  1  0  0  0  0
 16 11  2  0  0  0  0
 17 16  1  0  0  0  0
 18 14  1  0  0  0  0
 19 29  1  0  0  0  0
 20  8  1  0  0  0  0
 20 30  1  0  0  0  0
 21 31  1  0  0  0  0
 21  4  1  0  0  0  0
 22  3  1  0  0  0  0
 25  5  1  0  0  0  0
 27 15  1  0  0  0  0
 28 18  1  0  0  0  0
 32 22  1  0  0  0  0
M  END
>  <Pose>
1

>  <Score>
-4.32

$$$$

 OpenBabel10152117223D

 32 34  0  0  0  0  0  0  0  0999 V2000
   29.0630   -0.9700   16.2410 C   0  0  0  0  0  0  0  0  0  0  0  0
   29.7630    0.0170   16.9420 C   0  0  0  0  0  0  0  0  0  0  0  0
   29.8220    1.3020   16.4200 C   0  0  0  0  0  0  0  0  0  0  0  0
   29.2000    1.5990   15.2090 C   0  0  0  0  0  0  0  0  0  0  0  0
   28.5020    0.6260   14.5050 C   0  0  0  0  0  0  0  0  0  0  0  0
   28.4180   -0.6700   15.0260 C   0  0  0  0  0  0  0  0  0  0  0  0
   27.6510   -1.7060   14.3130 C   0  0  0  0  0  0  0  0  0  0  0  0
   28.2210   -2.5300   13.4100 C   0  0  0  0  0  0  0  0  0  0  0  0
   27.3440   -3.5070   12.7100 C   0  0  0  0  0  0  0  0  0  0  0  0
   27.7590   -4.2890   11.8580 O   0  0  0  0  0  0  0  0  0  0  0  0
   25.9220   -3.5110   13.0730 C   0  0  0  0  0  0  0  0  0  0  0  0
   25.0140   -4.3860   12.4640 C   0  0  0  0  0  0  0  0  0  0  0  0
   23.6700   -4.3720   12.8290 C   0  0  0  0  0  0  0  0  0  0  0  0
   23.2430   -3.4790   13.8080 C   0  0  0  0  0  0  0  0  0  0  0  0
   24.1370   -2.6040   14.4200 C   0  0  0  0  0  0  0  0  0  0  0  0
   25.4810   -2.6200   14.0470 C   0  0  0  0  0  0  0  0  0  0  0  0
   26.3140   -1.7280   14.6720 O   0  0  0  0  0  0  0  0  0  0  0  0
   21.9380   -3.4290   14.1990 O   0  0  0  0  0  0  0  0  0  0  0  0
   25.3770   -5.2840   11.4970 O   0  0  0  0  0  0  0  0  0  0  0  0
   29.5670   -2.5360   13.0860 O   0  0  0  0  0  0  0  0  0  0  0  0
   29.2660    2.8660   14.7040 O   0  0  0  0  0  0  0  0  0  0  0  0
   30.4790    2.3140   17.0620 O   0  0  0  0  0  0  0  0  0  0  0  0
   29.0240   -1.9790   16.6480 H   0  0  0  0  0  0  0  0  0  0  0  0
   30.2480   -0.2370   17.8790 H   0  0  0  0  0  0  0  0  0  0  0  0
   28.0260    0.8870   13.5630 H   0  0  0  0  0  0  0  0  0  0  0  0
   22.9810   -5.0570   12.3450 H   0  0  0  0  0  0  0  0  0  0  0  0
   23.7840   -1.9140   15.1810 H   0  0  0  0  0  0  0  0  0  0  0  0
   21.3720   -3.5950   13.4260 H   0  0  0  0  0  0  0  0  0  0  0  0
   24.6750   -5.9730   11.4400 H   0  0  0  0  0  0  0  0  0  0  0  0
   29.8350   -1.6400   12.8220 H   0  0  0  0  0  0  0  0  0  0  0  0
   29.7200    2.7660   13.8420 H   0  0  0  0  0  0  0  0  0  0  0  0
   31.1160    2.7090   16.4410 H   0  0  0  0  0  0  0  0  0  0  0  0
  1 23  1  0  0  0  0
  1  2  1  0  0  0  0
  2 24  1  0  0  0  0
  3  2  2  0  0  0  0
  3 22  1  0  0  0  0
  4  3  1  0  0  0  0
  5  6  1  0  0  0  0
  5  4  2  0  0  0  0
  6  1  2  0  0  0  0
  7 17  1  0  0  0  0
  7  6  1  0  0  0  0
  8  7  2  0  0  0  0
  9 11  1  0  0  0  0
  9  8  1  0  0  0  0
 10  9  2  0  0  0  0
 11 16  1  0  0  0  0
 12 13  1  0  0  0  0
 12 11  2  0  0  0  0
 13 14  2  0  0  0  0
 14 18  1  0  0  0  0
 14 15  1  0  0  0  0
 15 27  1  0  0  0  0
 16 15  2  0  0  0  0
 16 17  1  0  0  0  0
 19 12  1  0  0  0  0
 20  8  1  0  0  0  0
 21  4  1  0  0  0  0
 25  5  1  0  0  0  0
 26 13  1  0  0  0  0
 28 18  1  0  0  0  0
 29 19  1  0  0  0  0
 30 20  1  0  0  0  0
 31 21  1  0  0  0  0
 32 22  1  0  0  0  0
M  END
>  <Pose>
1

>  <Score>
-4.11

$$$$
