
 OpenBabel10152117223D

 32 34  0  0  0  0  0  0  0  0999 V2000
    4.8730   18.2960   14.9700 C   0  0  0  0  0  0  0  0  0  0  0  0
    6.0370   17.9750   15.6770 C   0  0  0  0  0  0  0  0  0  0  0  0
    7.0960   17.3850   15.0000 C   0  0  0  0  0  0  0  0  0  0  0  0
    6.9940   17.1080   13.6390 C   0  0  0  0  0  0  0  0  0  0  0  0
    5.8430   17.4220   12.9280 C   0  0  0  0  0  0  0  0  0  0  0  0
    4.7730   18.0340   13.5910 C   0  0  0  0  0  0  0  0  0  0  0  0
    3.5580   18.4100   12.8470 C   0  0  0  0  0  0  0  0  0  0  0  0
    2.3530   17.8670   13.1160 C   0  0  0  0  0  0  0  0  0  0  0  0
    1.2010   18.2800   12.2690 C   0  0  0  0  0  0  0  0  0  0  0  0
    0.0660   17.8330   12.4180 O   0  0  0  0  0  0  0  0  0  0  0  0
    1.4630   19.2650   11.2130 C   0  0  0  0  0  0  0  0  0  0  0  0
    0.4480   19.7100   10.3580 C   0  0  0  0  0  0  0  0  0  0  0  0
    0.7230   20.6480    9.3660 C   0  0  0  0  0  0  0  0  0  0  0  0
    2.0190   21.1380    9.2390 C   0  0  0  0  0  0  0  0  0  0  0  0
    3.0370   20.7030   10.0840 C   0  0  0  0  0  0  0  0  0  0  0  0
    2.7560   19.7600   11.0720 C   0  0  0  0  0  0  0  0  0  0  0  0
    3.7990   19.3580   11.8660 O   0  0  0  0  0  0  0  0  0  0  0  0
    2.3370   22.0580    8.2850 O   0  0  0  0  0  0  0  0  0  0  0  0
   -0.8440   19.2620   10.4370 O   0  0  0  0  0  0  0  0  0  0  0  0
    2.1060   16.9540   14.1260 O   0  0  0  0  0  0  0  0  0  0  0  0
    8.0410   16.5250   12.9840 O   0  0  0  0  0  0  0  0  0  0  0  0
    8.2640   17.0590   15.6300 O   0  0  0  0  0  0  0  0  0  0  0  0
    4.0400   18.7520   15.5030 H   0  0  0  0  0  0  0  0  0  0  0  0
    6.0920   18.1920   16.7390 H   0  0  0  0  0  0  0  0  0  0  0  0
    5.7920   17.1960   11.8660 H   0  0  0  0  0  0  0  0  0  0  0  0
   -0.0780   20.9790    8.7120 H   0  0  0  0  0  0  0  0  0  0  0  0
    4.0430   21.0980    9.9680 H   0  0  0  0  0  0  0  0  0  0  0  0
    2.8280   22.7870    8.7020 H   0  0  0  0  0  0  0  0  0  0  0  0
   -0.8300   18.3580   10.8320 H   0  0  0  0  0  0  0  0  0  0  0  0
    2.4270   16.0790   13.8500 H   0  0  0  0  0  0  0  0  0  0  0  0
    7.9350   16.8010   12.0510 H   0  0  0  0  0  0  0  0  0  0  0  0
    8.2850   16.0950   15.7580 H   0  0  0  0  0  0  0  0  0  0  0  0
  1 23  1  0  0  0  0
  1  2  1  0  0  0  0
  2 24  1  0  0  0  0
  3 22  1  0  0  0  0
  3  2  2  0  0  0  0
  4  3  1  0  0  0  0
  5  6  1  0  0  0  0
  5  4  2  0  0  0  0
  6  1  2  0  0  0  0
  7  8  2  0  0  0  0
  7  6  1  0  0  0  0
  8 20  1  0  0  0  0
  9 10  2  0  0  0  0
  9  8  1  0  0  0  0
 11  9  1  0  0  0  0
 12 19  1  0  0  0  0
 12 11  2  0  0  0  0
 13 12  1  0  0  0  0
 14 13  2  0  0  0  0
 14 15  1  0  0  0  0
 15 16  2  0  0  0  0
 16 11  1  0  0  0  0
 16 17  1  0  0  0  0
 17  7  1  0  0  0  0
 18 28  1  0  0  0  0
 18 14  1  0  0  0  0
 19 29  1  0  0  0  0
 21  4  1  0  0  0  0
 22 32  1  0  0  0  0
 25  5  1  0  0  0  0
 26 13  1  0  0  0  0
 27 15  1  0  0  0  0
 30 20  1  0  0  0  0
 31 21  1  0  0  0  0
M  END
>  <Pose>
1

>  <Score>
-5.35

$$$$

 OpenBabel10152117223D

 32 34  0  0  0  0  0  0  0  0999 V2000
    7.1930   17.9150   15.6470 C   0  0  0  0  0  0  0  0  0  0  0  0
    7.4500   17.3720   14.3830 C   0  0  0  0  0  0  0  0  0  0  0  0
    6.4360   17.3630   13.4350 C   0  0  0  0  0  0  0  0  0  0  0  0
    5.1790   17.8780   13.7430 C   0  0  0  0  0  0  0  0  0  0  0  0
    4.9140   18.4190   14.9950 C   0  0  0  0  0  0  0  0  0  0  0  0
    5.9300   18.4530   15.9570 C   0  0  0  0  0  0  0  0  0  0  0  0
    5.6800   19.0570   17.2770 C   0  0  0  0  0  0  0  0  0  0  0  0
    5.7680   20.3860   17.4890 C   0  0  0  0  0  0  0  0  0  0  0  0
    5.5470   20.8850   18.8730 C   0  0  0  0  0  0  0  0  0  0  0  0
    5.6210   22.0730   19.1770 O   0  0  0  0  0  0  0  0  0  0  0  0
    5.2290   19.8880   19.9020 C   0  0  0  0  0  0  0  0  0  0  0  0
    5.0120   20.2560   21.2360 C   0  0  0  0  0  0  0  0  0  0  0  0
    4.7080   19.2910   22.1920 C   0  0  0  0  0  0  0  0  0  0  0  0
    4.6210   17.9570   21.8040 C   0  0  0  0  0  0  0  0  0  0  0  0
    4.8350   17.5790   20.4810 C   0  0  0  0  0  0  0  0  0  0  0  0
    5.1430   18.5500   19.5280 C   0  0  0  0  0  0  0  0  0  0  0  0
    5.3560   18.1200   18.2440 O   0  0  0  0  0  0  0  0  0  0  0  0
    4.3250   16.9760   22.7040 O   0  0  0  0  0  0  0  0  0  0  0  0
    5.0850   21.5520   21.6730 O   0  0  0  0  0  0  0  0  0  0  0  0
    6.0480   21.3240   16.5110 O   0  0  0  0  0  0  0  0  0  0  0  0
    4.1880   17.8610   12.8040 O   0  0  0  0  0  0  0  0  0  0  0  0
    6.6250   16.8590   12.1790 O   0  0  0  0  0  0  0  0  0  0  0  0
    7.9870   17.9150   16.3920 H   0  0  0  0  0  0  0  0  0  0  0  0
    8.4330   16.9680   14.1660 H   0  0  0  0  0  0  0  0  0  0  0  0
    3.9240   18.8150   15.2070 H   0  0  0  0  0  0  0  0  0  0  0  0
    4.5460   19.5960   23.2210 H   0  0  0  0  0  0  0  0  0  0  0  0
    4.7620   16.5320   20.1980 H   0  0  0  0  0  0  0  0  0  0  0  0
    5.0390   16.3160   22.6940 H   0  0  0  0  0  0  0  0  0  0  0  0
    5.9770   21.9030   21.4420 H   0  0  0  0  0  0  0  0  0  0  0  0
    5.3600   22.0100   16.5200 H   0  0  0  0  0  0  0  0  0  0  0  0
    3.7880   16.9710   12.8800 H   0  0  0  0  0  0  0  0  0  0  0  0
    7.5140   17.1140   11.8760 H   0  0  0  0  0  0  0  0  0  0  0  0
  1  6  1  0  0  0  0
  1 23  1  0  0  0  0
  2  1  2  0  0  0  0
  3  4  2  0  0  0  0
  3  2  1  0  0  0  0
  4  5  1  0  0  0  0
  5 25  1  0  0  0  0
  5  6  2  0  0  0  0
  6  7  1  0  0  0  0
  7  8  2  0  0  0  0
  7 17  1  0  0  0  0
  8  9  1  0  0  0  0
  9 10  2  0  0  0  0
  9 11  1  0  0  0  0
 11 12  1  0  0  0  0
 12 19  1  0  0  0  0
 12 13  2  0  0  0  0
 13 26  1  0  0  0  0
 14 13  1  0  0  0  0
 14 18  1  0  0  0  0
 15 14  2  0  0  0  0
 16 11  2  0  0  0  0
 16 15  1  0  0  0  0
 17 16  1  0  0  0  0
 20 30  1  0  0  0  0
 20  8  1  0  0  0  0
 21 31  1  0  0  0  0
 21  4  1  0  0  0  0
 22  3  1  0  0  0  0
 24  2  1  0  0  0  0
 27 15  1  0  0  0  0
 28 18  1  0  0  0  0
 29 19  1  0  0  0  0
 32 22  1  0  0  0  0
M  END
>  <Pose>
1

>  <Score>
-4.78

$$$$

 OpenBabel10152117223D

 32 34  0  0  0  0  0  0  0  0999 V2000
    5.4610   19.1060   14.3420 C   0  0  0  0  0  0  0  0  0  0  0  0
    6.4110   18.6080   15.2390 C   0  0  0  0  0  0  0  0  0  0  0  0
    7.1810   17.5140   14.8670 C   0  0  0  0  0  0  0  0  0  0  0  0
    6.9990   16.9160   13.6220 C   0  0  0  0  0  0  0  0  0  0  0  0
    6.0580   17.4030   12.7240 C   0  0  0  0  0  0  0  0  0  0  0  0
    5.2860   18.5170   13.0760 C   0  0  0  0  0  0  0  0  0  0  0  0
    4.3100   19.0720   12.1230 C   0  0  0  0  0  0  0  0  0  0  0  0
    4.5210   20.2320   11.4690 C   0  0  0  0  0  0  0  0  0  0  0  0
    3.4460   20.7280   10.5680 C   0  0  0  0  0  0  0  0  0  0  0  0
    3.5300   21.7810    9.9410 O   0  0  0  0  0  0  0  0  0  0  0  0
    2.2400   19.9010   10.4460 C   0  0  0  0  0  0  0  0  0  0  0  0
    1.1680   20.2860    9.6300 C   0  0  0  0  0  0  0  0  0  0  0  0
    0.0360   19.4810    9.5290 C   0  0  0  0  0  0  0  0  0  0  0  0
   -0.0140   18.2900   10.2470 C   0  0  0  0  0  0  0  0  0  0  0  0
    1.0450   17.8970   11.0610 C   0  0  0  0  0  0  0  0  0  0  0  0
    2.1740   18.7100   11.1620 C   0  0  0  0  0  0  0  0  0  0  0  0
    3.1810   18.2800   11.9880 O   0  0  0  0  0  0  0  0  0  0  0  0
   -1.1000   17.4680   10.1790 O   0  0  0  0  0  0  0  0  0  0  0  0
    1.1630   21.4460    8.9030 O   0  0  0  0  0  0  0  0  0  0  0  0
    5.6690   20.9980   11.5720 O   0  0  0  0  0  0  0  0  0  0  0  0
    7.7600   15.8390   13.2670 O   0  0  0  0  0  0  0  0  0  0  0  0
    8.1350   16.9870   15.6920 O   0  0  0  0  0  0  0  0  0  0  0  0
    4.8520   19.9600   14.6380 H   0  0  0  0  0  0  0  0  0  0  0  0
    6.5310   19.0820   16.2080 H   0  0  0  0  0  0  0  0  0  0  0  0
    5.9390   16.9180   11.7590 H   0  0  0  0  0  0  0  0  0  0  0  0
   -0.7850   19.7970    8.8930 H   0  0  0  0  0  0  0  0  0  0  0  0
    0.9860   16.9630   11.6140 H   0  0  0  0  0  0  0  0  0  0  0  0
   -0.8100   16.5510   10.3220 H   0  0  0  0  0  0  0  0  0  0  0  0
    1.7540   22.0920    9.3540 H   0  0  0  0  0  0  0  0  0  0  0  0
    5.7310   21.5870   10.8010 H   0  0  0  0  0  0  0  0  0  0  0  0
    7.3890   15.0930   13.7810 H   0  0  0  0  0  0  0  0  0  0  0  0
    7.9140   16.0550   15.8610 H   0  0  0  0  0  0  0  0  0  0  0  0
  1 23  1  0  0  0  0
  1  2  1  0  0  0  0
  2 24  1  0  0  0  0
  3  2  2  0  0  0  0
  3 22  1  0  0  0  0
  4  3  1  0  0  0  0
  5  6  1  0  0  0  0
  5  4  2  0  0  0  0
  6  1  2  0  0  0  0
  7  6  1  0  0  0  0
  8 20  1  0  0  0  0
  8  7  2  0  0  0  0
  9  8  1  0  0  0  0
 10  9  2  0  0  0  0
 11  9  1  0  0  0  0
 11 16  1  0  0  0  0
 12 11  2  0  0  0  0
 13 12  1  0  0  0  0
 13 14  2  0  0  0  0
 14 15  1  0  0  0  0
 15 16  2  0  0  0  0
 15 27  1  0  0  0  0
 16 17  1  0  0  0  0
 17  7  1  0  0  0  0
 18 14  1  0  0  0  0
 18 28  1  0  0  0  0
 19 29  1  0  0  0  0
 19 12  1  0  0  0  0
 21  4  1  0  0  0  0
 21 31  1  0  0  0  0
 22 32  1  0  0  0  0
 25  5  1  0  0  0  0
 26 13  1  0  0  0  0
 30 20  1  0  0  0  0
M  END
>  <Pose>
1

>  <Score>
-4.77

$$$$

 OpenBabel10152117223D

 32 34  0  0  0  0  0  0  0  0999 V2000
    4.7710   19.3690   15.1250 C   0  0  0  0  0  0  0  0  0  0  0  0
    4.8660   18.9920   13.7820 C   0  0  0  0  0  0  0  0  0  0  0  0
    5.8750   18.1200   13.3960 C   0  0  0  0  0  0  0  0  0  0  0  0
    6.7840   17.6370   14.3340 C   0  0  0  0  0  0  0  0  0  0  0  0
    6.6980   18.0050   15.6710 C   0  0  0  0  0  0  0  0  0  0  0  0
    5.6760   18.8690   16.0800 C   0  0  0  0  0  0  0  0  0  0  0  0
    5.5450   19.2420   17.4990 C   0  0  0  0  0  0  0  0  0  0  0  0
    5.7360   20.5050   17.9320 C   0  0  0  0  0  0  0  0  0  0  0  0
    5.6300   20.7620   19.3940 C   0  0  0  0  0  0  0  0  0  0  0  0
    5.8030   21.8710   19.8930 O   0  0  0  0  0  0  0  0  0  0  0  0
    5.3050   19.6180   20.2540 C   0  0  0  0  0  0  0  0  0  0  0  0
    5.1910   19.7550   21.6430 C   0  0  0  0  0  0  0  0  0  0  0  0
    4.8780   18.6540   22.4360 C   0  0  0  0  0  0  0  0  0  0  0  0
    4.6770   17.4180   21.8290 C   0  0  0  0  0  0  0  0  0  0  0  0
    4.7880   17.2690   20.4480 C   0  0  0  0  0  0  0  0  0  0  0  0
    5.1060   18.3750   19.6600 C   0  0  0  0  0  0  0  0  0  0  0  0
    5.2140   18.1680   18.3090 O   0  0  0  0  0  0  0  0  0  0  0  0
    4.3680   16.3110   22.5630 O   0  0  0  0  0  0  0  0  0  0  0  0
    5.3780   20.9460   22.2930 O   0  0  0  0  0  0  0  0  0  0  0  0
    6.0230   21.5850   17.1150 O   0  0  0  0  0  0  0  0  0  0  0  0
    7.7740   16.7810   13.9440 O   0  0  0  0  0  0  0  0  0  0  0  0
    6.0150   17.7030   12.1020 O   0  0  0  0  0  0  0  0  0  0  0  0
    3.9830   20.0590   15.4260 H   0  0  0  0  0  0  0  0  0  0  0  0
    4.1530   19.3870   13.0650 H   0  0  0  0  0  0  0  0  0  0  0  0
    7.4210   17.6120   16.3810 H   0  0  0  0  0  0  0  0  0  0  0  0
    4.7970   18.7800   23.5110 H   0  0  0  0  0  0  0  0  0  0  0  0
    4.6280   16.2950   19.9940 H   0  0  0  0  0  0  0  0  0  0  0  0
    4.9540   15.5830   22.2940 H   0  0  0  0  0  0  0  0  0  0  0  0
    6.1650   21.3890   21.8980 H   0  0  0  0  0  0  0  0  0  0  0  0
    5.4740   21.5340   16.3140 H   0  0  0  0  0  0  0  0  0  0  0  0
    7.5350   15.9230   14.3470 H   0  0  0  0  0  0  0  0  0  0  0  0
    6.1730   18.4830   11.5430 H   0  0  0  0  0  0  0  0  0  0  0  0
  1 23  1  0  0  0  0
  1  6  1  0  0  0  0
  2  1  2  0  0  0  0
  3  2  1  0  0  0  0
  3  4  2  0  0  0  0
  4  5  1  0  0  0  0
  5  6  2  0  0  0  0
  5 25  1  0  0  0  0
  6  7  1  0  0  0  0
  7  8  2  0  0  0  0
  7 17  1  0  0  0  0
  8  9  1  0  0  0  0
  9 10  2  0  0  0  0
  9 11  1  0  0  0  0
 11 12  1  0  0  0  0
 12 19  1  0  0  0  0
 12 13  2  0  0  0  0
 13 26  1  0  0  0  0
 14 13  1  0  0  0  0
 14 18  1  0  0  0  0
 15 14  2  0  0  0  0
 16 11  2  0  0  0  0
 16 15  1  0  0  0  0
 17 16  1  0  0  0  0
 20  8  1  0  0  0  0
 21  4  1  0  0  0  0
 21 31  1  0  0  0  0
 22  3  1  0  0  0  0
 24  2  1  0  0  0  0
 27 15  1  0  0  0  0
 28 18  1  0  0  0  0
 29 19  1  0  0  0  0
 30 20  1  0  0  0  0
 32 22  1  0  0  0  0
M  END
>  <Pose>
1

>  <Score>
-4.73

$$$$

 OpenBabel10152117223D

 32 34  0  0  0  0  0  0  0  0999 V2000
    6.7560   18.5650   15.8540 C   0  0  0  0  0  0  0  0  0  0  0  0
    6.9410   17.9730   14.6000 C   0  0  0  0  0  0  0  0  0  0  0  0
    5.8360   17.7520   13.7890 C   0  0  0  0  0  0  0  0  0  0  0  0
    4.5610   18.1050   14.2260 C   0  0  0  0  0  0  0  0  0  0  0  0
    4.3670   18.6930   15.4690 C   0  0  0  0  0  0  0  0  0  0  0  0
    5.4720   18.9410   16.2910 C   0  0  0  0  0  0  0  0  0  0  0  0
    5.2920   19.5980   17.5970 C   0  0  0  0  0  0  0  0  0  0  0  0
    5.1490   18.8980   18.7410 C   0  0  0  0  0  0  0  0  0  0  0  0
    4.9200   19.6610   19.9980 C   0  0  0  0  0  0  0  0  0  0  0  0
    4.7600   19.1200   21.0900 O   0  0  0  0  0  0  0  0  0  0  0  0
    4.8880   21.1240   19.8980 C   0  0  0  0  0  0  0  0  0  0  0  0
    4.6700   21.9310   21.0220 C   0  0  0  0  0  0  0  0  0  0  0  0
    4.6470   23.3180   20.9000 C   0  0  0  0  0  0  0  0  0  0  0  0
    4.8460   23.8900   19.6470 C   0  0  0  0  0  0  0  0  0  0  0  0
    5.0630   23.0990   18.5220 C   0  0  0  0  0  0  0  0  0  0  0  0
    5.0800   21.7100   18.6500 C   0  0  0  0  0  0  0  0  0  0  0  0
    5.2850   20.9800   17.5080 O   0  0  0  0  0  0  0  0  0  0  0  0
    4.8330   25.2430   19.4770 O   0  0  0  0  0  0  0  0  0  0  0  0
    4.4680   21.4220   22.2770 O   0  0  0  0  0  0  0  0  0  0  0  0
    5.2010   17.5180   18.8340 O   0  0  0  0  0  0  0  0  0  0  0  0
    3.4810   17.8800   13.4220 O   0  0  0  0  0  0  0  0  0  0  0  0
    5.9500   17.1900   12.5490 O   0  0  0  0  0  0  0  0  0  0  0  0
    7.6230   18.7320   16.4920 H   0  0  0  0  0  0  0  0  0  0  0  0
    7.9420   17.6970   14.2830 H   0  0  0  0  0  0  0  0  0  0  0  0
    3.3610   18.9600   15.7830 H   0  0  0  0  0  0  0  0  0  0  0  0
    4.4750   23.9250   21.7830 H   0  0  0  0  0  0  0  0  0  0  0  0
    5.2150   23.5650   17.5520 H   0  0  0  0  0  0  0  0  0  0  0  0
    5.2120   25.4540   18.6070 H   0  0  0  0  0  0  0  0  0  0  0  0
    5.2200   20.8190   22.4870 H   0  0  0  0  0  0  0  0  0  0  0  0
    5.5740   17.1560   18.0130 H   0  0  0  0  0  0  0  0  0  0  0  0
    3.5980   16.9650   13.0980 H   0  0  0  0  0  0  0  0  0  0  0  0
    5.4650   16.3460   12.5490 H   0  0  0  0  0  0  0  0  0  0  0  0
  1  6  1  0  0  0  0
  1 23  1  0  0  0  0
  2  1  2  0  0  0  0
  3  4  2  0  0  0  0
  3  2  1  0  0  0  0
  4  5  1  0  0  0  0
  5 25  1  0  0  0  0
  5  6  2  0  0  0  0
  6  7  1  0  0  0  0
  7  8  2  0  0  0  0
  8 20  1  0  0  0  0
  8  9  1  0  0  0  0
  9 10  2  0  0  0  0
 11  9  1  0  0  0  0
 11 12  1  0  0  0  0
 12 19  1  0  0  0  0
 13 12  2  0  0  0  0
 13 26  1  0  0  0  0
 14 13  1  0  0  0  0
 15 16  1  0  0  0  0
 15 14  2  0  0  0  0
 16 11  2  0  0  0  0
 17  7  1  0  0  0  0
 17 16  1  0  0  0  0
 18 14  1  0  0  0  0
 19 29  1  0  0  0  0
 21  4  1  0  0  0  0
 22  3  1  0  0  0  0
 24  2  1  0  0  0  0
 27 15  1  0  0  0  0
 28 18  1  0  0  0  0
 30 20  1  0  0  0  0
 31 21  1  0  0  0  0
 32 22  1  0  0  0  0
M  END
>  <Pose>
1

>  <Score>
-4.39

$$$$
