
 OpenBabel10152117223D

 32 34  0  0  0  0  0  0  0  0999 V2000
   12.9770    6.9710   10.0630 C   0  0  0  0  0  0  0  0  0  0  0  0
   11.9690    6.4150    9.2680 C   0  0  0  0  0  0  0  0  0  0  0  0
   11.1340    7.2600    8.5500 C   0  0  0  0  0  0  0  0  0  0  0  0
   11.2930    8.6420    8.6300 C   0  0  0  0  0  0  0  0  0  0  0  0
   12.2900    9.2030    9.4160 C   0  0  0  0  0  0  0  0  0  0  0  0
   13.1530    8.3660   10.1330 C   0  0  0  0  0  0  0  0  0  0  0  0
   14.2410    8.9410   10.9420 C   0  0  0  0  0  0  0  0  0  0  0  0
   15.5400    8.6800   10.6920 C   0  0  0  0  0  0  0  0  0  0  0  0
   16.5560    9.2710   11.6040 C   0  0  0  0  0  0  0  0  0  0  0  0
   17.7630    9.0810   11.4750 O   0  0  0  0  0  0  0  0  0  0  0  0
   16.0640   10.1130   12.7000 C   0  0  0  0  0  0  0  0  0  0  0  0
   16.9390   10.7080   13.6170 C   0  0  0  0  0  0  0  0  0  0  0  0
   16.4460   11.5060   14.6460 C   0  0  0  0  0  0  0  0  0  0  0  0
   15.0730   11.7060   14.7490 C   0  0  0  0  0  0  0  0  0  0  0  0
   14.1920   11.1190   13.8430 C   0  0  0  0  0  0  0  0  0  0  0  0
   14.6920   10.3180   12.8170 C   0  0  0  0  0  0  0  0  0  0  0  0
   13.7790    9.7560   11.9620 O   0  0  0  0  0  0  0  0  0  0  0  0
   14.5430   12.4790   15.7390 O   0  0  0  0  0  0  0  0  0  0  0  0
   18.2980   10.5450   13.5640 O   0  0  0  0  0  0  0  0  0  0  0  0
   16.0010    7.9010    9.6440 O   0  0  0  0  0  0  0  0  0  0  0  0
   10.4640    9.4630    7.9220 O   0  0  0  0  0  0  0  0  0  0  0  0
   10.1380    6.7800    7.7450 O   0  0  0  0  0  0  0  0  0  0  0  0
   13.6270    6.3070   10.6320 H   0  0  0  0  0  0  0  0  0  0  0  0
   11.8570    5.3360    9.2260 H   0  0  0  0  0  0  0  0  0  0  0  0
   12.3920   10.2850    9.4590 H   0  0  0  0  0  0  0  0  0  0  0  0
   17.1410   11.9560   15.3480 H   0  0  0  0  0  0  0  0  0  0  0  0
   13.1230   11.2870   13.9410 H   0  0  0  0  0  0  0  0  0  0  0  0
   14.8730   12.1610   16.5960 H   0  0  0  0  0  0  0  0  0  0  0  0
   18.7150   11.4350   13.6410 H   0  0  0  0  0  0  0  0  0  0  0  0
   16.4420    8.4710    8.9930 H   0  0  0  0  0  0  0  0  0  0  0  0
    9.6710    8.9200    7.7400 H   0  0  0  0  0  0  0  0  0  0  0  0
    9.4010    7.4150    7.7570 H   0  0  0  0  0  0  0  0  0  0  0  0
  1  6  1  0  0  0  0
  1 23  1  0  0  0  0
  2  1  2  0  0  0  0
  3  4  2  0  0  0  0
  3  2  1  0  0  0  0
  4  5  1  0  0  0  0
  5 25  1  0  0  0  0
  5  6  2  0  0  0  0
  6  7  1  0  0  0  0
  7 17  1  0  0  0  0
  8  7  2  0  0  0  0
  8  9  1  0  0  0  0
  9 11  1  0  0  0  0
 10  9  2  0  0  0  0
 11 16  2  0  0  0  0
 11 12  1  0  0  0  0
 12 13  2  0  0  0  0
 13 14  1  0  0  0  0
 13 26  1  0  0  0  0
 14 18  1  0  0  0  0
 15 27  1  0  0  0  0
 15 14  2  0  0  0  0
 16 15  1  0  0  0  0
 17 16  1  0  0  0  0
 18 28  1  0  0  0  0
 19 12  1  0  0  0  0
 19 29  1  0  0  0  0
 20  8  1  0  0  0  0
 21  4  1  0  0  0  0
 22 32  1  0  0  0  0
 22  3  1  0  0  0  0
 24  2  1  0  0  0  0
 30 20  1  0  0  0  0
 31 21  1  0  0  0  0
M  END
>  <Pose>
3

>  <Score>
-5.26

$$$$

 OpenBabel10152117223D

 32 34  0  0  0  0  0  0  0  0999 V2000
   14.7840   12.4520   13.9550 C   0  0  0  0  0  0  0  0  0  0  0  0
   14.9310   13.1670   15.1480 C   0  0  0  0  0  0  0  0  0  0  0  0
   16.0440   12.9290   15.9440 C   0  0  0  0  0  0  0  0  0  0  0  0
   16.9920   11.9820   15.5630 C   0  0  0  0  0  0  0  0  0  0  0  0
   16.8550   11.2670   14.3810 C   0  0  0  0  0  0  0  0  0  0  0  0
   15.7490   11.5080   13.5570 C   0  0  0  0  0  0  0  0  0  0  0  0
   15.6050   10.7870   12.2810 C   0  0  0  0  0  0  0  0  0  0  0  0
   16.5050   10.9040   11.2830 C   0  0  0  0  0  0  0  0  0  0  0  0
   16.2360   10.1720   10.0160 C   0  0  0  0  0  0  0  0  0  0  0  0
   16.9810   10.2240    9.0400 O   0  0  0  0  0  0  0  0  0  0  0  0
   15.0150    9.3590    9.9570 C   0  0  0  0  0  0  0  0  0  0  0  0
   14.6680    8.6410    8.8060 C   0  0  0  0  0  0  0  0  0  0  0  0
   13.5060    7.8750    8.7780 C   0  0  0  0  0  0  0  0  0  0  0  0
   12.6960    7.8320    9.9090 C   0  0  0  0  0  0  0  0  0  0  0  0
   13.0290    8.5430   11.0590 C   0  0  0  0  0  0  0  0  0  0  0  0
   14.1930    9.3120   11.0790 C   0  0  0  0  0  0  0  0  0  0  0  0
   14.4660   10.0010   12.2320 O   0  0  0  0  0  0  0  0  0  0  0  0
   11.5480    7.0960    9.9290 O   0  0  0  0  0  0  0  0  0  0  0  0
   15.4270    8.6460    7.6660 O   0  0  0  0  0  0  0  0  0  0  0  0
   17.6660   11.6550   11.3500 O   0  0  0  0  0  0  0  0  0  0  0  0
   18.0810   11.7540   16.3550 O   0  0  0  0  0  0  0  0  0  0  0  0
   16.2530   13.6020   17.1150 O   0  0  0  0  0  0  0  0  0  0  0  0
   13.9080   12.6350   13.3350 H   0  0  0  0  0  0  0  0  0  0  0  0
   14.1760   13.8940   15.4320 H   0  0  0  0  0  0  0  0  0  0  0  0
   17.6110   10.5360   14.1080 H   0  0  0  0  0  0  0  0  0  0  0  0
   13.2540    7.3260    7.8760 H   0  0  0  0  0  0  0  0  0  0  0  0
   12.3830    8.4970   11.9310 H   0  0  0  0  0  0  0  0  0  0  0  0
   11.2820    6.9560   10.8540 H   0  0  0  0  0  0  0  0  0  0  0  0
   15.9620    9.4740    7.6590 H   0  0  0  0  0  0  0  0  0  0  0  0
   17.7470   12.0390   12.2390 H   0  0  0  0  0  0  0  0  0  0  0  0
   18.7310   12.4330   16.0860 H   0  0  0  0  0  0  0  0  0  0  0  0
   16.6500   14.4660   16.9060 H   0  0  0  0  0  0  0  0  0  0  0  0
  1  2  1  0  0  0  0
  2 24  1  0  0  0  0
  2  3  2  0  0  0  0
  3 22  1  0  0  0  0
  4  3  1  0  0  0  0
  4 21  1  0  0  0  0
  5  4  2  0  0  0  0
  6  1  2  0  0  0  0
  6  5  1  0  0  0  0
  7  6  1  0  0  0  0
  8 20  1  0  0  0  0
  8  7  2  0  0  0  0
  9  8  1  0  0  0  0
 10  9  2  0  0  0  0
 11  9  1  0  0  0  0
 11 16  1  0  0  0  0
 12 11  2  0  0  0  0
 13 12  1  0  0  0  0
 13 14  2  0  0  0  0
 14 18  1  0  0  0  0
 14 15  1  0  0  0  0
 15 16  2  0  0  0  0
 15 27  1  0  0  0  0
 16 17  1  0  0  0  0
 17  7  1  0  0  0  0
 18 28  1  0  0  0  0
 19 12  1  0  0  0  0
 20 30  1  0  0  0  0
 23  1  1  0  0  0  0
 25  5  1  0  0  0  0
 26 13  1  0  0  0  0
 29 19  1  0  0  0  0
 31 21  1  0  0  0  0
 32 22  1  0  0  0  0
M  END
>  <Pose>
2

>  <Score>
-5.11

$$$$
