
 OpenBabel10152117223D

 32 34  0  0  0  0  0  0  0  0999 V2000
  -10.4750   33.5010   20.0020 C   0  0  0  0  0  0  0  0  0  0  0  0
  -10.1810   34.2190   21.1660 C   0  0  0  0  0  0  0  0  0  0  0  0
   -9.7030   33.5360   22.2760 C   0  0  0  0  0  0  0  0  0  0  0  0
   -9.5300   32.1550   22.2330 C   0  0  0  0  0  0  0  0  0  0  0  0
   -9.8200   31.4330   21.0820 C   0  0  0  0  0  0  0  0  0  0  0  0
  -10.2850   32.1080   19.9470 C   0  0  0  0  0  0  0  0  0  0  0  0
  -10.5610   31.3660   18.7050 C   0  0  0  0  0  0  0  0  0  0  0  0
  -11.6510   30.5850   18.5610 C   0  0  0  0  0  0  0  0  0  0  0  0
  -11.8070   29.8380   17.2830 C   0  0  0  0  0  0  0  0  0  0  0  0
  -12.7520   29.0860   17.0570 O   0  0  0  0  0  0  0  0  0  0  0  0
  -10.7660   30.0260   16.2660 C   0  0  0  0  0  0  0  0  0  0  0  0
  -10.8170   29.3610   15.0340 C   0  0  0  0  0  0  0  0  0  0  0  0
   -9.8190   29.5600   14.0840 C   0  0  0  0  0  0  0  0  0  0  0  0
   -8.7720   30.4300   14.3750 C   0  0  0  0  0  0  0  0  0  0  0  0
   -8.7100   31.0960   15.5960 C   0  0  0  0  0  0  0  0  0  0  0  0
   -9.7110   30.8890   16.5450 C   0  0  0  0  0  0  0  0  0  0  0  0
   -9.5930   31.5610   17.7340 O   0  0  0  0  0  0  0  0  0  0  0  0
   -7.7710   30.6570   13.4770 O   0  0  0  0  0  0  0  0  0  0  0  0
  -11.8230   28.4950   14.6950 O   0  0  0  0  0  0  0  0  0  0  0  0
  -12.6400   30.4260   19.5160 O   0  0  0  0  0  0  0  0  0  0  0  0
   -9.0630   31.4930   23.3320 O   0  0  0  0  0  0  0  0  0  0  0  0
   -9.3850   34.1790   23.4400 O   0  0  0  0  0  0  0  0  0  0  0  0
  -10.8560   34.0370   19.1340 H   0  0  0  0  0  0  0  0  0  0  0  0
  -10.3310   35.2940   21.1820 H   0  0  0  0  0  0  0  0  0  0  0  0
   -9.6740   30.3560   21.0760 H   0  0  0  0  0  0  0  0  0  0  0  0
   -9.8750   29.0340   13.1370 H   0  0  0  0  0  0  0  0  0  0  0  0
   -7.8830   31.7710   15.8040 H   0  0  0  0  0  0  0  0  0  0  0  0
   -7.6350   29.8530   12.9480 H   0  0  0  0  0  0  0  0  0  0  0  0
  -12.2400   28.1710   15.5270 H   0  0  0  0  0  0  0  0  0  0  0  0
  -13.0630   29.5590   19.3970 H   0  0  0  0  0  0  0  0  0  0  0  0
   -9.0110   32.1760   24.0300 H   0  0  0  0  0  0  0  0  0  0  0  0
   -9.0370   33.5240   24.0680 H   0  0  0  0  0  0  0  0  0  0  0  0
  1  2  1  0  0  0  0
  2 24  1  0  0  0  0
  2  3  2  0  0  0  0
  3 22  1  0  0  0  0
  4  3  1  0  0  0  0
  4 21  1  0  0  0  0
  5  4  2  0  0  0  0
  6  1  2  0  0  0  0
  6  5  1  0  0  0  0
  7  6  1  0  0  0  0
  8  7  2  0  0  0  0
  8 20  1  0  0  0  0
  9  8  1  0  0  0  0
 10  9  2  0  0  0  0
 11 16  1  0  0  0  0
 11  9  1  0  0  0  0
 12 11  2  0  0  0  0
 13 14  2  0  0  0  0
 13 12  1  0  0  0  0
 14 15  1  0  0  0  0
 15 27  1  0  0  0  0
 15 16  2  0  0  0  0
 16 17  1  0  0  0  0
 17  7  1  0  0  0  0
 18 14  1  0  0  0  0
 19 12  1  0  0  0  0
 19 29  1  0  0  0  0
 21 31  1  0  0  0  0
 22 32  1  0  0  0  0
 23  1  1  0  0  0  0
 25  5  1  0  0  0  0
 26 13  1  0  0  0  0
 28 18  1  0  0  0  0
 30 20  1  0  0  0  0
M  END
>  <Pose>
3

>  <Score>
-3.57

$$$$

 OpenBabel10152117223D

 32 34  0  0  0  0  0  0  0  0999 V2000
  -11.7840   33.8350   21.3710 C   0  0  0  0  0  0  0  0  0  0  0  0
  -10.8140   34.5250   22.1060 C   0  0  0  0  0  0  0  0  0  0  0  0
   -9.8280   33.8030   22.7650 C   0  0  0  0  0  0  0  0  0  0  0  0
   -9.8140   32.4110   22.7030 C   0  0  0  0  0  0  0  0  0  0  0  0
  -10.7730   31.7170   21.9770 C   0  0  0  0  0  0  0  0  0  0  0  0
  -11.7630   32.4300   21.2900 C   0  0  0  0  0  0  0  0  0  0  0  0
  -12.7660   31.7140   20.4840 C   0  0  0  0  0  0  0  0  0  0  0  0
  -12.8170   31.8190   19.1400 C   0  0  0  0  0  0  0  0  0  0  0  0
  -13.9030   31.0940   18.4270 C   0  0  0  0  0  0  0  0  0  0  0  0
  -14.0500   31.1370   17.2080 O   0  0  0  0  0  0  0  0  0  0  0  0
  -14.8280   30.3010   19.2450 C   0  0  0  0  0  0  0  0  0  0  0  0
  -15.8890   29.5900   18.6690 C   0  0  0  0  0  0  0  0  0  0  0  0
  -16.7510   28.8430   19.4670 C   0  0  0  0  0  0  0  0  0  0  0  0
  -16.5420   28.8100   20.8430 C   0  0  0  0  0  0  0  0  0  0  0  0
  -15.4920   29.5130   21.4270 C   0  0  0  0  0  0  0  0  0  0  0  0
  -14.6340   30.2640   20.6220 C   0  0  0  0  0  0  0  0  0  0  0  0
  -13.6250   30.9460   21.2510 O   0  0  0  0  0  0  0  0  0  0  0  0
  -17.3590   28.0920   21.6650 O   0  0  0  0  0  0  0  0  0  0  0  0
  -16.1410   29.5870   17.3230 O   0  0  0  0  0  0  0  0  0  0  0  0
  -11.9290   32.5520   18.3710 O   0  0  0  0  0  0  0  0  0  0  0  0
   -8.8410   31.7110   23.3580 O   0  0  0  0  0  0  0  0  0  0  0  0
   -8.8440   34.4160   23.4900 O   0  0  0  0  0  0  0  0  0  0  0  0
  -12.5610   34.4020   20.8600 H   0  0  0  0  0  0  0  0  0  0  0  0
  -10.8480   35.6090   22.1490 H   0  0  0  0  0  0  0  0  0  0  0  0
  -10.7370   30.6310   21.9450 H   0  0  0  0  0  0  0  0  0  0  0  0
  -17.5680   28.3000   19.0020 H   0  0  0  0  0  0  0  0  0  0  0  0
  -15.3460   29.4750   22.5030 H   0  0  0  0  0  0  0  0  0  0  0  0
  -16.8630   27.8490   22.4660 H   0  0  0  0  0  0  0  0  0  0  0  0
  -15.9130   28.6940   16.9720 H   0  0  0  0  0  0  0  0  0  0  0  0
  -11.2740   31.9510   17.9800 H   0  0  0  0  0  0  0  0  0  0  0  0
   -8.9740   31.9260   24.3030 H   0  0  0  0  0  0  0  0  0  0  0  0
   -8.4850   33.7740   24.1250 H   0  0  0  0  0  0  0  0  0  0  0  0
  1  2  1  0  0  0  0
  2 24  1  0  0  0  0
  2  3  2  0  0  0  0
  3 22  1  0  0  0  0
  4  3  1  0  0  0  0
  4 21  1  0  0  0  0
  5  4  2  0  0  0  0
  6  1  2  0  0  0  0
  6  5  1  0  0  0  0
  7 17  1  0  0  0  0
  7  6  1  0  0  0  0
  8  7  2  0  0  0  0
  9  8  1  0  0  0  0
  9 11  1  0  0  0  0
 10  9  2  0  0  0  0
 11 16  1  0  0  0  0
 12 11  2  0  0  0  0
 12 13  1  0  0  0  0
 13 14  2  0  0  0  0
 14 15  1  0  0  0  0
 14 18  1  0  0  0  0
 15 27  1  0  0  0  0
 16 17  1  0  0  0  0
 16 15  2  0  0  0  0
 18 28  1  0  0  0  0
 19 12  1  0  0  0  0
 20  8  1  0  0  0  0
 21 31  1  0  0  0  0
 22 32  1  0  0  0  0
 23  1  1  0  0  0  0
 25  5  1  0  0  0  0
 26 13  1  0  0  0  0
 29 19  1  0  0  0  0
 30 20  1  0  0  0  0
M  END
>  <Pose>
1

>  <Score>
-3.38

$$$$

 OpenBabel10152117223D

 32 34  0  0  0  0  0  0  0  0999 V2000
  -10.4230   33.9280   20.1220 C   0  0  0  0  0  0  0  0  0  0  0  0
  -10.1330   34.5700   21.3300 C   0  0  0  0  0  0  0  0  0  0  0  0
   -9.6870   33.8140   22.4060 C   0  0  0  0  0  0  0  0  0  0  0  0
   -9.5400   32.4340   22.2830 C   0  0  0  0  0  0  0  0  0  0  0  0
   -9.8240   31.7870   21.0880 C   0  0  0  0  0  0  0  0  0  0  0  0
  -10.2580   32.5360   19.9880 C   0  0  0  0  0  0  0  0  0  0  0  0
  -10.5280   31.8740   18.7010 C   0  0  0  0  0  0  0  0  0  0  0  0
   -9.6810   31.9590   17.6550 C   0  0  0  0  0  0  0  0  0  0  0  0
  -10.0770   31.2940   16.3840 C   0  0  0  0  0  0  0  0  0  0  0  0
   -9.3860   31.3270   15.3680 O   0  0  0  0  0  0  0  0  0  0  0  0
  -11.3560   30.5770   16.3730 C   0  0  0  0  0  0  0  0  0  0  0  0
  -11.8210   29.9270   15.2230 C   0  0  0  0  0  0  0  0  0  0  0  0
  -13.0380   29.2500   15.2400 C   0  0  0  0  0  0  0  0  0  0  0  0
  -13.7840   29.2260   16.4150 C   0  0  0  0  0  0  0  0  0  0  0  0
  -13.3320   29.8690   17.5650 C   0  0  0  0  0  0  0  0  0  0  0  0
  -12.1140   30.5500   17.5400 C   0  0  0  0  0  0  0  0  0  0  0  0
  -11.7250   31.1750   18.6960 O   0  0  0  0  0  0  0  0  0  0  0  0
  -14.9800   28.5760   16.4810 O   0  0  0  0  0  0  0  0  0  0  0  0
  -11.1310   29.9170   14.0410 O   0  0  0  0  0  0  0  0  0  0  0  0
   -8.4650   32.6200   17.6760 O   0  0  0  0  0  0  0  0  0  0  0  0
   -9.1020   31.7000   23.3480 O   0  0  0  0  0  0  0  0  0  0  0  0
   -9.3750   34.3820   23.6090 O   0  0  0  0  0  0  0  0  0  0  0  0
  -10.7800   34.5210   19.2810 H   0  0  0  0  0  0  0  0  0  0  0  0
  -10.2630   35.6450   21.4080 H   0  0  0  0  0  0  0  0  0  0  0  0
   -9.6990   30.7090   21.0200 H   0  0  0  0  0  0  0  0  0  0  0  0
  -13.3820   28.7530   14.3380 H   0  0  0  0  0  0  0  0  0  0  0  0
  -13.9290   29.8400   18.4720 H   0  0  0  0  0  0  0  0  0  0  0  0
  -14.9660   27.9690   17.2400 H   0  0  0  0  0  0  0  0  0  0  0  0
  -11.6460   30.4380   13.3810 H   0  0  0  0  0  0  0  0  0  0  0  0
   -8.2260   32.8190   18.5970 H   0  0  0  0  0  0  0  0  0  0  0  0
   -8.7730   32.3620   23.9890 H   0  0  0  0  0  0  0  0  0  0  0  0
   -9.5440   33.7280   24.3100 H   0  0  0  0  0  0  0  0  0  0  0  0
  1  2  1  0  0  0  0
  2 24  1  0  0  0  0
  2  3  2  0  0  0  0
  3 22  1  0  0  0  0
  4  3  1  0  0  0  0
  4 21  1  0  0  0  0
  5  4  2  0  0  0  0
  6  1  2  0  0  0  0
  6  5  1  0  0  0  0
  7  6  1  0  0  0  0
  8 20  1  0  0  0  0
  8  7  2  0  0  0  0
  9  8  1  0  0  0  0
 10  9  2  0  0  0  0
 11  9  1  0  0  0  0
 11 16  1  0  0  0  0
 12 13  1  0  0  0  0
 12 11  2  0  0  0  0
 13 14  2  0  0  0  0
 14 18  1  0  0  0  0
 14 15  1  0  0  0  0
 15 27  1  0  0  0  0
 16 15  2  0  0  0  0
 16 17  1  0  0  0  0
 17  7  1  0  0  0  0
 18 28  1  0  0  0  0
 19 12  1  0  0  0  0
 20 30  1  0  0  0  0
 21 31  1  0  0  0  0
 22 32  1  0  0  0  0
 23  1  1  0  0  0  0
 25  5  1  0  0  0  0
 26 13  1  0  0  0  0
 29 19  1  0  0  0  0
M  END
>  <Pose>
1

>  <Score>
-3.02

$$$$
