
 OpenBabel10152117223D

 32 34  0  0  0  0  0  0  0  0999 V2000
    5.1680   29.7100   26.9550 C   0  0  0  0  0  0  0  0  0  0  0  0
    4.9540   30.2390   28.2320 C   0  0  0  0  0  0  0  0  0  0  0  0
    4.3750   29.4360   29.2060 C   0  0  0  0  0  0  0  0  0  0  0  0
    4.0030   28.1270   28.9090 C   0  0  0  0  0  0  0  0  0  0  0  0
    4.2120   27.5920   27.6450 C   0  0  0  0  0  0  0  0  0  0  0  0
    4.8120   28.3810   26.6560 C   0  0  0  0  0  0  0  0  0  0  0  0
    5.0760   27.8210   25.3200 C   0  0  0  0  0  0  0  0  0  0  0  0
    4.4600   28.2810   24.2120 C   0  0  0  0  0  0  0  0  0  0  0  0
    4.7610   27.6080   22.9200 C   0  0  0  0  0  0  0  0  0  0  0  0
    4.2420   27.9380   21.8560 O   0  0  0  0  0  0  0  0  0  0  0  0
    5.7260   26.5030   22.9480 C   0  0  0  0  0  0  0  0  0  0  0  0
    6.0690   25.8010   21.7860 C   0  0  0  0  0  0  0  0  0  0  0  0
    6.9900   24.7570   21.8400 C   0  0  0  0  0  0  0  0  0  0  0  0
    7.5660   24.4250   23.0630 C   0  0  0  0  0  0  0  0  0  0  0  0
    7.2320   25.1150   24.2250 C   0  0  0  0  0  0  0  0  0  0  0  0
    6.3050   26.1570   24.1650 C   0  0  0  0  0  0  0  0  0  0  0  0
    6.0040   26.7930   25.3410 O   0  0  0  0  0  0  0  0  0  0  0  0
    8.4720   23.4120   23.1660 O   0  0  0  0  0  0  0  0  0  0  0  0
    5.5350   26.0850   20.5570 O   0  0  0  0  0  0  0  0  0  0  0  0
    3.5660   29.3380   24.1870 O   0  0  0  0  0  0  0  0  0  0  0  0
    3.4320   27.3470   29.8740 O   0  0  0  0  0  0  0  0  0  0  0  0
    4.1500   29.8880   30.4760 O   0  0  0  0  0  0  0  0  0  0  0  0
    5.6160   30.3420   26.1900 H   0  0  0  0  0  0  0  0  0  0  0  0
    5.2420   31.2640   28.4400 H   0  0  0  0  0  0  0  0  0  0  0  0
    3.9130   26.5670   27.4420 H   0  0  0  0  0  0  0  0  0  0  0  0
    7.2420   24.2240   20.9290 H   0  0  0  0  0  0  0  0  0  0  0  0
    7.6910   24.8400   25.1700 H   0  0  0  0  0  0  0  0  0  0  0  0
    8.1050   22.7190   23.7410 H   0  0  0  0  0  0  0  0  0  0  0  0
    5.1020   26.9680   20.6090 H   0  0  0  0  0  0  0  0  0  0  0  0
    3.6010   29.7640   23.3140 H   0  0  0  0  0  0  0  0  0  0  0  0
    2.4710   27.5140   29.7920 H   0  0  0  0  0  0  0  0  0  0  0  0
    4.9640   30.3120   30.8000 H   0  0  0  0  0  0  0  0  0  0  0  0
  1  2  1  0  0  0  0
  2 24  1  0  0  0  0
  2  3  2  0  0  0  0
  3 22  1  0  0  0  0
  4  3  1  0  0  0  0
  4 21  1  0  0  0  0
  5  4  2  0  0  0  0
  6  1  2  0  0  0  0
  6  5  1  0  0  0  0
  7 17  1  0  0  0  0
  7  6  1  0  0  0  0
  8  7  2  0  0  0  0
  9 11  1  0  0  0  0
  9  8  1  0  0  0  0
 10  9  2  0  0  0  0
 11 16  1  0  0  0  0
 12 13  1  0  0  0  0
 12 11  2  0  0  0  0
 13 14  2  0  0  0  0
 14 18  1  0  0  0  0
 14 15  1  0  0  0  0
 15 27  1  0  0  0  0
 16 15  2  0  0  0  0
 16 17  1  0  0  0  0
 18 28  1  0  0  0  0
 19 29  1  0  0  0  0
 19 12  1  0  0  0  0
 20  8  1  0  0  0  0
 22 32  1  0  0  0  0
 23  1  1  0  0  0  0
 25  5  1  0  0  0  0
 26 13  1  0  0  0  0
 30 20  1  0  0  0  0
 31 21  1  0  0  0  0
M  END
>  <Pose>
1

>  <Score>
-6.11

$$$$

 OpenBabel10152117223D

 32 34  0  0  0  0  0  0  0  0999 V2000
    4.2800   27.4360   27.5720 C   0  0  0  0  0  0  0  0  0  0  0  0
    3.9560   27.9320   28.8390 C   0  0  0  0  0  0  0  0  0  0  0  0
    4.2040   29.2680   29.1240 C   0  0  0  0  0  0  0  0  0  0  0  0
    4.7770   30.0980   28.1630 C   0  0  0  0  0  0  0  0  0  0  0  0
    5.1030   29.6160   26.9020 C   0  0  0  0  0  0  0  0  0  0  0  0
    4.8430   28.2760   26.5910 C   0  0  0  0  0  0  0  0  0  0  0  0
    5.1460   27.7540   25.2480 C   0  0  0  0  0  0  0  0  0  0  0  0
    4.5390   28.2260   24.1390 C   0  0  0  0  0  0  0  0  0  0  0  0
    4.8820   27.5930   22.8370 C   0  0  0  0  0  0  0  0  0  0  0  0
    4.3740   27.9340   21.7720 O   0  0  0  0  0  0  0  0  0  0  0  0
    5.8740   26.5110   22.8580 C   0  0  0  0  0  0  0  0  0  0  0  0
    6.2570   25.8460   21.6870 C   0  0  0  0  0  0  0  0  0  0  0  0
    7.2030   24.8250   21.7330 C   0  0  0  0  0  0  0  0  0  0  0  0
    7.7630   24.4780   22.9590 C   0  0  0  0  0  0  0  0  0  0  0  0
    7.3900   25.1310   24.1300 C   0  0  0  0  0  0  0  0  0  0  0  0
    6.4390   26.1500   24.0770 C   0  0  0  0  0  0  0  0  0  0  0  0
    6.1000   26.7500   25.2630 O   0  0  0  0  0  0  0  0  0  0  0  0
    8.6940   23.4850   23.0550 O   0  0  0  0  0  0  0  0  0  0  0  0
    5.7390   26.1460   20.4550 O   0  0  0  0  0  0  0  0  0  0  0  0
    3.6200   29.2600   24.1220 O   0  0  0  0  0  0  0  0  0  0  0  0
    5.0190   31.4100   28.4550 O   0  0  0  0  0  0  0  0  0  0  0  0
    3.8990   29.8170   30.3380 O   0  0  0  0  0  0  0  0  0  0  0  0
    4.0920   26.3860   27.3510 H   0  0  0  0  0  0  0  0  0  0  0  0
    3.5190   27.2660   29.5760 H   0  0  0  0  0  0  0  0  0  0  0  0
    5.5480   30.2860   26.1720 H   0  0  0  0  0  0  0  0  0  0  0  0
    7.4850   24.3210   20.8150 H   0  0  0  0  0  0  0  0  0  0  0  0
    7.8390   24.8440   25.0780 H   0  0  0  0  0  0  0  0  0  0  0  0
    8.3080   22.7410   23.5480 H   0  0  0  0  0  0  0  0  0  0  0  0
    5.5170   27.1060   20.4420 H   0  0  0  0  0  0  0  0  0  0  0  0
    3.7210   29.7640   23.2970 H   0  0  0  0  0  0  0  0  0  0  0  0
    5.9330   31.5690   28.1440 H   0  0  0  0  0  0  0  0  0  0  0  0
    3.2020   29.2790   30.7510 H   0  0  0  0  0  0  0  0  0  0  0  0
  1  2  1  0  0  0  0
  2  3  2  0  0  0  0
  2 24  1  0  0  0  0
  3 22  1  0  0  0  0
  4 21  1  0  0  0  0
  4  3  1  0  0  0  0
  5  4  2  0  0  0  0
  6  5  1  0  0  0  0
  6  1  2  0  0  0  0
  7 17  1  0  0  0  0
  7  6  1  0  0  0  0
  8  7  2  0  0  0  0
  9 11  1  0  0  0  0
  9  8  1  0  0  0  0
 10  9  2  0  0  0  0
 11 16  1  0  0  0  0
 12 13  1  0  0  0  0
 12 11  2  0  0  0  0
 13 14  2  0  0  0  0
 14 18  1  0  0  0  0
 14 15  1  0  0  0  0
 15 27  1  0  0  0  0
 16 15  2  0  0  0  0
 16 17  1  0  0  0  0
 18 28  1  0  0  0  0
 19 12  1  0  0  0  0
 20  8  1  0  0  0  0
 22 32  1  0  0  0  0
 23  1  1  0  0  0  0
 25  5  1  0  0  0  0
 26 13  1  0  0  0  0
 29 19  1  0  0  0  0
 30 20  1  0  0  0  0
 31 21  1  0  0  0  0
M  END
>  <Pose>
4

>  <Score>
-6.09

$$$$
