
 OpenBabel10152117223D

 32 34  0  0  0  0  0  0  0  0999 V2000
   25.1340   26.5160   23.1110 C   0  0  0  0  0  0  0  0  0  0  0  0
   24.7600   27.6230   23.8800 C   0  0  0  0  0  0  0  0  0  0  0  0
   23.5240   28.2140   23.6540 C   0  0  0  0  0  0  0  0  0  0  0  0
   22.6750   27.7150   22.6690 C   0  0  0  0  0  0  0  0  0  0  0  0
   23.0360   26.6160   21.9010 C   0  0  0  0  0  0  0  0  0  0  0  0
   24.2710   25.9970   22.1280 C   0  0  0  0  0  0  0  0  0  0  0  0
   24.6570   24.8070   21.3500 C   0  0  0  0  0  0  0  0  0  0  0  0
   24.2590   23.5640   21.6910 C   0  0  0  0  0  0  0  0  0  0  0  0
   24.7490   22.4270   20.8660 C   0  0  0  0  0  0  0  0  0  0  0  0
   24.4620   21.2560   21.1010 O   0  0  0  0  0  0  0  0  0  0  0  0
   25.6150   22.7500   19.7260 C   0  0  0  0  0  0  0  0  0  0  0  0
   26.1350   21.7500   18.8950 C   0  0  0  0  0  0  0  0  0  0  0  0
   26.9520   22.0840   17.8170 C   0  0  0  0  0  0  0  0  0  0  0  0
   27.2420   23.4240   17.5780 C   0  0  0  0  0  0  0  0  0  0  0  0
   26.7320   24.4270   18.3980 C   0  0  0  0  0  0  0  0  0  0  0  0
   25.9180   24.0860   19.4780 C   0  0  0  0  0  0  0  0  0  0  0  0
   25.4540   25.1120   20.2590 O   0  0  0  0  0  0  0  0  0  0  0  0
   28.0370   23.8000   16.5350 O   0  0  0  0  0  0  0  0  0  0  0  0
   25.8820   20.4170   19.0830 O   0  0  0  0  0  0  0  0  0  0  0  0
   23.4260   23.2660   22.7550 O   0  0  0  0  0  0  0  0  0  0  0  0
   21.4630   28.3060   22.4540 O   0  0  0  0  0  0  0  0  0  0  0  0
   23.0950   29.2910   24.3780 O   0  0  0  0  0  0  0  0  0  0  0  0
   26.1070   26.0570   23.2840 H   0  0  0  0  0  0  0  0  0  0  0  0
   25.4410   28.0020   24.6360 H   0  0  0  0  0  0  0  0  0  0  0  0
   22.3530   26.2480   21.1400 H   0  0  0  0  0  0  0  0  0  0  0  0
   27.3460   21.2940   17.1850 H   0  0  0  0  0  0  0  0  0  0  0  0
   26.9710   25.4670   18.1940 H   0  0  0  0  0  0  0  0  0  0  0  0
   28.7010   23.1060   16.3810 H   0  0  0  0  0  0  0  0  0  0  0  0
   25.3250   20.3230   19.8900 H   0  0  0  0  0  0  0  0  0  0  0  0
   22.8130   22.5590   22.4920 H   0  0  0  0  0  0  0  0  0  0  0  0
   21.5990   29.2460   22.6900 H   0  0  0  0  0  0  0  0  0  0  0  0
   22.4720   29.8000   23.8310 H   0  0  0  0  0  0  0  0  0  0  0  0
  1 23  1  0  0  0  0
  1  2  1  0  0  0  0
  2 24  1  0  0  0  0
  3  2  2  0  0  0  0
  3 22  1  0  0  0  0
  4  3  1  0  0  0  0
  5  6  1  0  0  0  0
  5  4  2  0  0  0  0
  6  1  2  0  0  0  0
  7  8  2  0  0  0  0
  7  6  1  0  0  0  0
  8 20  1  0  0  0  0
  9 10  2  0  0  0  0
  9  8  1  0  0  0  0
 11  9  1  0  0  0  0
 12 19  1  0  0  0  0
 12 11  2  0  0  0  0
 13 12  1  0  0  0  0
 14 13  2  0  0  0  0
 14 15  1  0  0  0  0
 15 16  2  0  0  0  0
 16 11  1  0  0  0  0
 16 17  1  0  0  0  0
 17  7  1  0  0  0  0
 18 14  1  0  0  0  0
 19 29  1  0  0  0  0
 21  4  1  0  0  0  0
 21 31  1  0  0  0  0
 25  5  1  0  0  0  0
 26 13  1  0  0  0  0
 27 15  1  0  0  0  0
 28 18  1  0  0  0  0
 30 20  1  0  0  0  0
 32 22  1  0  0  0  0
M  END
>  <Pose>
3

>  <Score>
-4.76

$$$$

 OpenBabel10152117223D

 32 34  0  0  0  0  0  0  0  0999 V2000
   27.1870   23.3500   21.5000 C   0  0  0  0  0  0  0  0  0  0  0  0
   28.0140   22.4030   20.8870 C   0  0  0  0  0  0  0  0  0  0  0  0
   27.5280   21.6850   19.8020 C   0  0  0  0  0  0  0  0  0  0  0  0
   26.2310   21.9010   19.3400 C   0  0  0  0  0  0  0  0  0  0  0  0
   25.4030   22.8390   19.9410 C   0  0  0  0  0  0  0  0  0  0  0  0
   25.8830   23.5850   21.0250 C   0  0  0  0  0  0  0  0  0  0  0  0
   25.0340   24.6110   21.6520 C   0  0  0  0  0  0  0  0  0  0  0  0
   24.8720   25.8380   21.1160 C   0  0  0  0  0  0  0  0  0  0  0  0
   24.0330   26.8160   21.8600 C   0  0  0  0  0  0  0  0  0  0  0  0
   23.8360   27.9640   21.4680 O   0  0  0  0  0  0  0  0  0  0  0  0
   23.4270   26.3610   23.1160 C   0  0  0  0  0  0  0  0  0  0  0  0
   22.6280   27.2090   23.8940 C   0  0  0  0  0  0  0  0  0  0  0  0
   22.0620   26.7510   25.0810 C   0  0  0  0  0  0  0  0  0  0  0  0
   22.2990   25.4390   25.4820 C   0  0  0  0  0  0  0  0  0  0  0  0
   23.0920   24.5870   24.7170 C   0  0  0  0  0  0  0  0  0  0  0  0
   23.6600   25.0530   23.5310 C   0  0  0  0  0  0  0  0  0  0  0  0
   24.4410   24.1750   22.8260 O   0  0  0  0  0  0  0  0  0  0  0  0
   21.7660   24.9450   26.6350 O   0  0  0  0  0  0  0  0  0  0  0  0
   22.3620   28.5070   23.5480 O   0  0  0  0  0  0  0  0  0  0  0  0
   25.4290   26.2560   19.9200 O   0  0  0  0  0  0  0  0  0  0  0  0
   25.7620   21.1880   18.2740 O   0  0  0  0  0  0  0  0  0  0  0  0
   28.2880   20.7550   19.1510 O   0  0  0  0  0  0  0  0  0  0  0  0
   27.5670   23.9080   22.3550 H   0  0  0  0  0  0  0  0  0  0  0  0
   29.0170   22.2440   21.2680 H   0  0  0  0  0  0  0  0  0  0  0  0
   24.3970   22.9880   19.5580 H   0  0  0  0  0  0  0  0  0  0  0  0
   21.4480   27.4240   25.6700 H   0  0  0  0  0  0  0  0  0  0  0  0
   23.2660   23.5660   25.0480 H   0  0  0  0  0  0  0  0  0  0  0  0
   20.9360   24.4840   26.4250 H   0  0  0  0  0  0  0  0  0  0  0  0
   23.0130   28.7790   22.8600 H   0  0  0  0  0  0  0  0  0  0  0  0
   25.4610   27.2270   19.9050 H   0  0  0  0  0  0  0  0  0  0  0  0
   25.3630   20.3860   18.6670 H   0  0  0  0  0  0  0  0  0  0  0  0
   28.0350   19.8720   19.4730 H   0  0  0  0  0  0  0  0  0  0  0  0
  1 23  1  0  0  0  0
  2 24  1  0  0  0  0
  2  1  2  0  0  0  0
  3  2  1  0  0  0  0
  4  3  2  0  0  0  0
  4  5  1  0  0  0  0
  5  6  2  0  0  0  0
  6  1  1  0  0  0  0
  6  7  1  0  0  0  0
  7 17  1  0  0  0  0
  8  7  2  0  0  0  0
  8  9  1  0  0  0  0
  9 11  1  0  0  0  0
 10  9  2  0  0  0  0
 11 16  2  0  0  0  0
 11 12  1  0  0  0  0
 12 13  2  0  0  0  0
 13 14  1  0  0  0  0
 13 26  1  0  0  0  0
 14 18  1  0  0  0  0
 15 27  1  0  0  0  0
 15 14  2  0  0  0  0
 16 15  1  0  0  0  0
 17 16  1  0  0  0  0
 19 12  1  0  0  0  0
 20  8  1  0  0  0  0
 21 31  1  0  0  0  0
 21  4  1  0  0  0  0
 22 32  1  0  0  0  0
 22  3  1  0  0  0  0
 25  5  1  0  0  0  0
 28 18  1  0  0  0  0
 29 19  1  0  0  0  0
 30 20  1  0  0  0  0
M  END
>  <Pose>
2

>  <Score>
-4.60

$$$$
