
 OpenBabel10152117223D

 32 34  0  0  0  0  0  0  0  0999 V2000
   13.8050   16.0790   27.0820 C   0  0  0  0  0  0  0  0  0  0  0  0
   13.6610   16.4980   25.7550 C   0  0  0  0  0  0  0  0  0  0  0  0
   13.2600   17.8030   25.5000 C   0  0  0  0  0  0  0  0  0  0  0  0
   12.9960   18.6770   26.5530 C   0  0  0  0  0  0  0  0  0  0  0  0
   13.1360   18.2700   27.8730 C   0  0  0  0  0  0  0  0  0  0  0  0
   13.5570   16.9640   28.1480 C   0  0  0  0  0  0  0  0  0  0  0  0
   13.7480   16.5250   29.5410 C   0  0  0  0  0  0  0  0  0  0  0  0
   12.7210   16.4130   30.4080 C   0  0  0  0  0  0  0  0  0  0  0  0
   13.0330   16.0110   31.8060 C   0  0  0  0  0  0  0  0  0  0  0  0
   12.1740   15.8970   32.6780 O   0  0  0  0  0  0  0  0  0  0  0  0
   14.4390   15.7460   32.1300 C   0  0  0  0  0  0  0  0  0  0  0  0
   14.8350   15.3710   33.4200 C   0  0  0  0  0  0  0  0  0  0  0  0
   16.1770   15.1230   33.7000 C   0  0  0  0  0  0  0  0  0  0  0  0
   17.1160   15.2510   32.6820 C   0  0  0  0  0  0  0  0  0  0  0  0
   16.7340   15.6240   31.3950 C   0  0  0  0  0  0  0  0  0  0  0  0
   15.3900   15.8750   31.1220 C   0  0  0  0  0  0  0  0  0  0  0  0
   15.0720   16.2510   29.8420 O   0  0  0  0  0  0  0  0  0  0  0  0
   18.4410   15.0180   32.9070 O   0  0  0  0  0  0  0  0  0  0  0  0
   13.9550   15.2310   34.4590 O   0  0  0  0  0  0  0  0  0  0  0  0
   11.3930   16.6430   30.0920 O   0  0  0  0  0  0  0  0  0  0  0  0
   12.6000   19.9570   26.2910 O   0  0  0  0  0  0  0  0  0  0  0  0
   13.1120   18.2790   24.2280 O   0  0  0  0  0  0  0  0  0  0  0  0
   14.1130   15.0530   27.2810 H   0  0  0  0  0  0  0  0  0  0  0  0
   13.8630   15.7990   24.9500 H   0  0  0  0  0  0  0  0  0  0  0  0
   12.9250   18.9730   28.6740 H   0  0  0  0  0  0  0  0  0  0  0  0
   16.4640   14.8350   34.7070 H   0  0  0  0  0  0  0  0  0  0  0  0
   17.4830   15.7190   30.6140 H   0  0  0  0  0  0  0  0  0  0  0  0
   18.5530   14.0930   33.1860 H   0  0  0  0  0  0  0  0  0  0  0  0
   13.8790   14.2700   34.6680 H   0  0  0  0  0  0  0  0  0  0  0  0
   11.2520   16.4540   29.1490 H   0  0  0  0  0  0  0  0  0  0  0  0
   11.6980   19.8680   25.9230 H   0  0  0  0  0  0  0  0  0  0  0  0
   13.9350   18.7310   23.9710 H   0  0  0  0  0  0  0  0  0  0  0  0
  1 23  1  0  0  0  0
  1  6  1  0  0  0  0
  2  1  2  0  0  0  0
  3  2  1  0  0  0  0
  3  4  2  0  0  0  0
  4  5  1  0  0  0  0
  5  6  2  0  0  0  0
  5 25  1  0  0  0  0
  6  7  1  0  0  0  0
  7 17  1  0  0  0  0
  7  8  2  0  0  0  0
  8  9  1  0  0  0  0
  9 11  1  0  0  0  0
  9 10  2  0  0  0  0
 11 12  1  0  0  0  0
 12 13  2  0  0  0  0
 12 19  1  0  0  0  0
 13 26  1  0  0  0  0
 14 18  1  0  0  0  0
 14 13  1  0  0  0  0
 15 14  2  0  0  0  0
 16 15  1  0  0  0  0
 16 11  2  0  0  0  0
 17 16  1  0  0  0  0
 18 28  1  0  0  0  0
 19 29  1  0  0  0  0
 20  8  1  0  0  0  0
 21  4  1  0  0  0  0
 22  3  1  0  0  0  0
 24  2  1  0  0  0  0
 27 15  1  0  0  0  0
 30 20  1  0  0  0  0
 31 21  1  0  0  0  0
 32 22  1  0  0  0  0
M  END
>  <Pose>
2

>  <Score>
-5.37

$$$$

 OpenBabel10152117223D

 32 34  0  0  0  0  0  0  0  0999 V2000
   15.6580   16.3770   28.9600 C   0  0  0  0  0  0  0  0  0  0  0  0
   16.3860   15.2210   29.2610 C   0  0  0  0  0  0  0  0  0  0  0  0
   15.7010   14.0670   29.6160 C   0  0  0  0  0  0  0  0  0  0  0  0
   14.3090   14.0660   29.6800 C   0  0  0  0  0  0  0  0  0  0  0  0
   13.5780   15.2080   29.3830 C   0  0  0  0  0  0  0  0  0  0  0  0
   14.2510   16.3750   29.0050 C   0  0  0  0  0  0  0  0  0  0  0  0
   13.4920   17.5860   28.6490 C   0  0  0  0  0  0  0  0  0  0  0  0
   13.4480   18.0630   27.3890 C   0  0  0  0  0  0  0  0  0  0  0  0
   12.6940   19.3230   27.1490 C   0  0  0  0  0  0  0  0  0  0  0  0
   12.6060   19.8520   26.0430 O   0  0  0  0  0  0  0  0  0  0  0  0
   12.0360   19.9420   28.3060 C   0  0  0  0  0  0  0  0  0  0  0  0
   11.3100   21.1330   28.1850 C   0  0  0  0  0  0  0  0  0  0  0  0
   10.6930   21.6980   29.2980 C   0  0  0  0  0  0  0  0  0  0  0  0
   10.8050   21.0600   30.5300 C   0  0  0  0  0  0  0  0  0  0  0  0
   11.5250   19.8760   30.6630 C   0  0  0  0  0  0  0  0  0  0  0  0
   12.1450   19.3180   29.5450 C   0  0  0  0  0  0  0  0  0  0  0  0
   12.8500   18.1580   29.7360 O   0  0  0  0  0  0  0  0  0  0  0  0
   10.2180   21.5740   31.6490 O   0  0  0  0  0  0  0  0  0  0  0  0
   11.1660   21.8020   26.9990 O   0  0  0  0  0  0  0  0  0  0  0  0
   14.0530   17.4650   26.2970 O   0  0  0  0  0  0  0  0  0  0  0  0
   13.6460   12.9250   30.0330 O   0  0  0  0  0  0  0  0  0  0  0  0
   16.3510   12.9010   29.9100 O   0  0  0  0  0  0  0  0  0  0  0  0
   16.1970   17.2840   28.6880 H   0  0  0  0  0  0  0  0  0  0  0  0
   17.4700   15.2450   29.2140 H   0  0  0  0  0  0  0  0  0  0  0  0
   12.4930   15.1780   29.4400 H   0  0  0  0  0  0  0  0  0  0  0  0
   10.1360   22.6220   29.1850 H   0  0  0  0  0  0  0  0  0  0  0  0
   11.6020   19.3940   31.6340 H   0  0  0  0  0  0  0  0  0  0  0  0
    9.2600   21.6400   31.4970 H   0  0  0  0  0  0  0  0  0  0  0  0
   10.3400   21.4840   26.5670 H   0  0  0  0  0  0  0  0  0  0  0  0
   14.4240   18.1540   25.7200 H   0  0  0  0  0  0  0  0  0  0  0  0
   14.2540   12.4630   30.6440 H   0  0  0  0  0  0  0  0  0  0  0  0
   15.6940   12.2490   30.2070 H   0  0  0  0  0  0  0  0  0  0  0  0
  1  6  2  0  0  0  0
  1  2  1  0  0  0  0
  2  3  2  0  0  0  0
  3  4  1  0  0  0  0
  3 22  1  0  0  0  0
  4 21  1  0  0  0  0
  5 25  1  0  0  0  0
  5  4  2  0  0  0  0
  6  5  1  0  0  0  0
  7  6  1  0  0  0  0
  7 17  1  0  0  0  0
  8  7  2  0  0  0  0
  9  8  1  0  0  0  0
  9 11  1  0  0  0  0
 10  9  2  0  0  0  0
 11 16  1  0  0  0  0
 12 11  2  0  0  0  0
 12 13  1  0  0  0  0
 13 14  2  0  0  0  0
 14 15  1  0  0  0  0
 14 18  1  0  0  0  0
 15 27  1  0  0  0  0
 16 17  1  0  0  0  0
 16 15  2  0  0  0  0
 19 12  1  0  0  0  0
 20  8  1  0  0  0  0
 21 31  1  0  0  0  0
 22 32  1  0  0  0  0
 23  1  1  0  0  0  0
 24  2  1  0  0  0  0
 26 13  1  0  0  0  0
 28 18  1  0  0  0  0
 29 19  1  0  0  0  0
 30 20  1  0  0  0  0
M  END
>  <Pose>
1

>  <Score>
-5.00

$$$$

 OpenBabel10152117223D

 32 34  0  0  0  0  0  0  0  0999 V2000
   11.6850   18.7860   29.8010 C   0  0  0  0  0  0  0  0  0  0  0  0
   10.6610   19.6940   29.5130 C   0  0  0  0  0  0  0  0  0  0  0  0
   10.8120   20.5600   28.4370 C   0  0  0  0  0  0  0  0  0  0  0  0
   11.9710   20.5290   27.6650 C   0  0  0  0  0  0  0  0  0  0  0  0
   12.9930   19.6300   27.9430 C   0  0  0  0  0  0  0  0  0  0  0  0
   12.8500   18.7380   29.0120 C   0  0  0  0  0  0  0  0  0  0  0  0
   13.9060   17.7530   29.3000 C   0  0  0  0  0  0  0  0  0  0  0  0
   13.9780   16.5680   28.6610 C   0  0  0  0  0  0  0  0  0  0  0  0
   15.0550   15.6240   29.0660 C   0  0  0  0  0  0  0  0  0  0  0  0
   15.1980   14.5130   28.5600 O   0  0  0  0  0  0  0  0  0  0  0  0
   15.9720   16.0670   30.1220 C   0  0  0  0  0  0  0  0  0  0  0  0
   17.0120   15.2480   30.5800 C   0  0  0  0  0  0  0  0  0  0  0  0
   17.8710   15.6940   31.5810 C   0  0  0  0  0  0  0  0  0  0  0  0
   17.6820   16.9630   32.1190 C   0  0  0  0  0  0  0  0  0  0  0  0
   16.6510   17.7860   31.6730 C   0  0  0  0  0  0  0  0  0  0  0  0
   15.7920   17.3320   30.6720 C   0  0  0  0  0  0  0  0  0  0  0  0
   14.7870   18.1790   30.2800 O   0  0  0  0  0  0  0  0  0  0  0  0
   18.4970   17.4440   33.1010 O   0  0  0  0  0  0  0  0  0  0  0  0
   17.2440   13.9910   30.0870 O   0  0  0  0  0  0  0  0  0  0  0  0
   13.1230   16.1620   27.6500 O   0  0  0  0  0  0  0  0  0  0  0  0
   12.1090   21.3870   26.6120 O   0  0  0  0  0  0  0  0  0  0  0  0
    9.8440   21.4620   28.0950 O   0  0  0  0  0  0  0  0  0  0  0  0
   11.5690   18.1120   30.6490 H   0  0  0  0  0  0  0  0  0  0  0  0
    9.7700   19.7090   30.1320 H   0  0  0  0  0  0  0  0  0  0  0  0
   13.8850   19.6280   27.3230 H   0  0  0  0  0  0  0  0  0  0  0  0
   18.6700   15.0440   31.9240 H   0  0  0  0  0  0  0  0  0  0  0  0
   16.5200   18.7740   32.1060 H   0  0  0  0  0  0  0  0  0  0  0  0
   18.5450   18.4120   33.0230 H   0  0  0  0  0  0  0  0  0  0  0  0
   16.4560   13.4340   30.2880 H   0  0  0  0  0  0  0  0  0  0  0  0
   12.3010   15.8260   28.0440 H   0  0  0  0  0  0  0  0  0  0  0  0
   11.4520   21.0810   25.9540 H   0  0  0  0  0  0  0  0  0  0  0  0
    9.3330   21.0980   27.3520 H   0  0  0  0  0  0  0  0  0  0  0  0
  1 23  1  0  0  0  0
  2  1  1  0  0  0  0
  2 24  1  0  0  0  0
  3  2  2  0  0  0  0
  4  5  2  0  0  0  0
  4  3  1  0  0  0  0
  5  6  1  0  0  0  0
  6  7  1  0  0  0  0
  6  1  2  0  0  0  0
  7 17  1  0  0  0  0
  8  9  1  0  0  0  0
  8  7  2  0  0  0  0
  9 11  1  0  0  0  0
 10  9  2  0  0  0  0
 11 12  2  0  0  0  0
 11 16  1  0  0  0  0
 12 13  1  0  0  0  0
 13 26  1  0  0  0  0
 13 14  2  0  0  0  0
 14 18  1  0  0  0  0
 15 27  1  0  0  0  0
 15 14  1  0  0  0  0
 16 15  2  0  0  0  0
 17 16  1  0  0  0  0
 19 29  1  0  0  0  0
 19 12  1  0  0  0  0
 20 30  1  0  0  0  0
 20  8  1  0  0  0  0
 21  4  1  0  0  0  0
 22  3  1  0  0  0  0
 25  5  1  0  0  0  0
 28 18  1  0  0  0  0
 31 21  1  0  0  0  0
 32 22  1  0  0  0  0
M  END
>  <Pose>
1

>  <Score>
-4.80

$$$$

 OpenBabel10152117223D

 32 34  0  0  0  0  0  0  0  0999 V2000
   12.4160   16.5990   30.6550 C   0  0  0  0  0  0  0  0  0  0  0  0
   11.1260   16.9170   30.2200 C   0  0  0  0  0  0  0  0  0  0  0  0
   10.9700   17.6500   29.0520 C   0  0  0  0  0  0  0  0  0  0  0  0
   12.0850   18.0700   28.3300 C   0  0  0  0  0  0  0  0  0  0  0  0
   13.3710   17.7580   28.7530 C   0  0  0  0  0  0  0  0  0  0  0  0
   13.5460   17.0040   29.9200 C   0  0  0  0  0  0  0  0  0  0  0  0
   14.8990   16.6320   30.3650 C   0  0  0  0  0  0  0  0  0  0  0  0
   15.7130   15.8560   29.6200 C   0  0  0  0  0  0  0  0  0  0  0  0
   17.0410   15.4970   30.1880 C   0  0  0  0  0  0  0  0  0  0  0  0
   17.8500   14.7830   29.6000 O   0  0  0  0  0  0  0  0  0  0  0  0
   17.3710   16.0340   31.5130 C   0  0  0  0  0  0  0  0  0  0  0  0
   18.5920   15.7470   32.1360 C   0  0  0  0  0  0  0  0  0  0  0  0
   18.8820   16.2720   33.3930 C   0  0  0  0  0  0  0  0  0  0  0  0
   17.9430   17.0880   34.0190 C   0  0  0  0  0  0  0  0  0  0  0  0
   16.7260   17.3800   33.4090 C   0  0  0  0  0  0  0  0  0  0  0  0
   16.4400   16.8470   32.1520 C   0  0  0  0  0  0  0  0  0  0  0  0
   15.2220   17.1580   31.6040 O   0  0  0  0  0  0  0  0  0  0  0  0
   18.1820   17.6260   35.2490 O   0  0  0  0  0  0  0  0  0  0  0  0
   19.5510   14.9510   31.5680 O   0  0  0  0  0  0  0  0  0  0  0  0
   15.4060   15.3690   28.3620 O   0  0  0  0  0  0  0  0  0  0  0  0
   11.9200   18.7930   27.1830 O   0  0  0  0  0  0  0  0  0  0  0  0
    9.7370   17.9840   28.5660 O   0  0  0  0  0  0  0  0  0  0  0  0
   12.5380   16.0290   31.5760 H   0  0  0  0  0  0  0  0  0  0  0  0
   10.2700   16.5890   30.8020 H   0  0  0  0  0  0  0  0  0  0  0  0
   14.2230   18.0980   28.1700 H   0  0  0  0  0  0  0  0  0  0  0  0
   19.8330   16.0360   33.8600 H   0  0  0  0  0  0  0  0  0  0  0  0
   16.0060   18.0190   33.9140 H   0  0  0  0  0  0  0  0  0  0  0  0
   19.0080   18.1380   35.2120 H   0  0  0  0  0  0  0  0  0  0  0  0
   20.4330   15.3270   31.7950 H   0  0  0  0  0  0  0  0  0  0  0  0
   14.5070   14.9990   28.3730 H   0  0  0  0  0  0  0  0  0  0  0  0
   11.1020   19.3080   27.3300 H   0  0  0  0  0  0  0  0  0  0  0  0
    9.8570   18.5810   27.8070 H   0  0  0  0  0  0  0  0  0  0  0  0
  1 23  1  0  0  0  0
  2  1  1  0  0  0  0
  2 24  1  0  0  0  0
  3  2  2  0  0  0  0
  4  5  2  0  0  0  0
  4  3  1  0  0  0  0
  5  6  1  0  0  0  0
  6  7  1  0  0  0  0
  6  1  2  0  0  0  0
  7 17  1  0  0  0  0
  8  9  1  0  0  0  0
  8  7  2  0  0  0  0
  9 11  1  0  0  0  0
 10  9  2  0  0  0  0
 11 12  2  0  0  0  0
 11 16  1  0  0  0  0
 12 13  1  0  0  0  0
 13 26  1  0  0  0  0
 13 14  2  0  0  0  0
 14 18  1  0  0  0  0
 15 27  1  0  0  0  0
 15 14  1  0  0  0  0
 16 15  2  0  0  0  0
 17 16  1  0  0  0  0
 19 29  1  0  0  0  0
 19 12  1  0  0  0  0
 20 30  1  0  0  0  0
 20  8  1  0  0  0  0
 21 31  1  0  0  0  0
 21  4  1  0  0  0  0
 22  3  1  0  0  0  0
 25  5  1  0  0  0  0
 28 18  1  0  0  0  0
 32 22  1  0  0  0  0
M  END
>  <Pose>
1

>  <Score>
-4.59

$$$$
