
 OpenBabel10152117223D

 32 34  0  0  0  0  0  0  0  0999 V2000
  -17.4830   21.2850    6.7520 C   0  0  0  0  0  0  0  0  0  0  0  0
  -18.1370   22.2880    6.0300 C   0  0  0  0  0  0  0  0  0  0  0  0
  -17.4630   22.9220    4.9950 C   0  0  0  0  0  0  0  0  0  0  0  0
  -16.1500   22.5700    4.6900 C   0  0  0  0  0  0  0  0  0  0  0  0
  -15.4920   21.5750    5.4010 C   0  0  0  0  0  0  0  0  0  0  0  0
  -16.1630   20.9120    6.4360 C   0  0  0  0  0  0  0  0  0  0  0  0
  -15.4960   19.8290    7.1770 C   0  0  0  0  0  0  0  0  0  0  0  0
  -15.0000   20.0060    8.4190 C   0  0  0  0  0  0  0  0  0  0  0  0
  -14.2990   18.8590    9.0570 C   0  0  0  0  0  0  0  0  0  0  0  0
  -13.7960   18.9200   10.1760 O   0  0  0  0  0  0  0  0  0  0  0  0
  -14.2180   17.6110    8.2890 C   0  0  0  0  0  0  0  0  0  0  0  0
  -13.5700   16.4790    8.7980 C   0  0  0  0  0  0  0  0  0  0  0  0
  -13.5100   15.3060    8.0490 C   0  0  0  0  0  0  0  0  0  0  0  0
  -14.1040   15.2750    6.7910 C   0  0  0  0  0  0  0  0  0  0  0  0
  -14.7490   16.3950    6.2730 C   0  0  0  0  0  0  0  0  0  0  0  0
  -14.8020   17.5680    7.0260 C   0  0  0  0  0  0  0  0  0  0  0  0
  -15.4400   18.6430    6.4630 O   0  0  0  0  0  0  0  0  0  0  0  0
  -14.0720   14.1500    6.0210 O   0  0  0  0  0  0  0  0  0  0  0  0
  -12.9700   16.4520   10.0280 O   0  0  0  0  0  0  0  0  0  0  0  0
  -15.0970   21.1780    9.1480 O   0  0  0  0  0  0  0  0  0  0  0  0
  -15.4960   23.2020    3.6720 O   0  0  0  0  0  0  0  0  0  0  0  0
  -18.0490   23.9010    4.2430 O   0  0  0  0  0  0  0  0  0  0  0  0
  -18.0110   20.7920    7.5680 H   0  0  0  0  0  0  0  0  0  0  0  0
  -19.1570   22.5540    6.2890 H   0  0  0  0  0  0  0  0  0  0  0  0
  -14.4680   21.3200    5.1410 H   0  0  0  0  0  0  0  0  0  0  0  0
  -13.0030   14.4390    8.4610 H   0  0  0  0  0  0  0  0  0  0  0  0
  -15.2060   16.3510    5.2880 H   0  0  0  0  0  0  0  0  0  0  0  0
  -14.8670   14.1290    5.4620 H   0  0  0  0  0  0  0  0  0  0  0  0
  -13.6700   16.3100   10.7070 H   0  0  0  0  0  0  0  0  0  0  0  0
  -15.8810   21.6730    8.8550 H   0  0  0  0  0  0  0  0  0  0  0  0
  -14.5740   23.2920    3.9870 H   0  0  0  0  0  0  0  0  0  0  0  0
  -18.6990   24.3670    4.7970 H   0  0  0  0  0  0  0  0  0  0  0  0
  1 23  1  0  0  0  0
  2 24  1  0  0  0  0
  2  1  2  0  0  0  0
  3  2  1  0  0  0  0
  4  3  2  0  0  0  0
  4  5  1  0  0  0  0
  5  6  2  0  0  0  0
  6  1  1  0  0  0  0
  6  7  1  0  0  0  0
  7  8  2  0  0  0  0
  8  9  1  0  0  0  0
  8 20  1  0  0  0  0
  9 10  2  0  0  0  0
 11 12  1  0  0  0  0
 11  9  1  0  0  0  0
 12 19  1  0  0  0  0
 13 26  1  0  0  0  0
 13 12  2  0  0  0  0
 14 13  1  0  0  0  0
 15 14  2  0  0  0  0
 15 16  1  0  0  0  0
 16 11  2  0  0  0  0
 17 16  1  0  0  0  0
 17  7  1  0  0  0  0
 18 14  1  0  0  0  0
 19 29  1  0  0  0  0
 21 31  1  0  0  0  0
 21  4  1  0  0  0  0
 22 32  1  0  0  0  0
 22  3  1  0  0  0  0
 25  5  1  0  0  0  0
 27 15  1  0  0  0  0
 28 18  1  0  0  0  0
 30 20  1  0  0  0  0
M  END
>  <Pose>
1

>  <Score>
-5.85

$$$$

 OpenBabel10152117223D

 32 34  0  0  0  0  0  0  0  0999 V2000
  -18.1590   22.9710   -0.5180 C   0  0  0  0  0  0  0  0  0  0  0  0
  -19.0280   22.3840   -1.4430 C   0  0  0  0  0  0  0  0  0  0  0  0
  -20.3650   22.7600   -1.4450 C   0  0  0  0  0  0  0  0  0  0  0  0
  -20.8320   23.7020   -0.5310 C   0  0  0  0  0  0  0  0  0  0  0  0
  -19.9770   24.2910    0.3920 C   0  0  0  0  0  0  0  0  0  0  0  0
  -18.6220   23.9370    0.3950 C   0  0  0  0  0  0  0  0  0  0  0  0
  -17.6920   24.5770    1.3400 C   0  0  0  0  0  0  0  0  0  0  0  0
  -17.6850   24.2820    2.6560 C   0  0  0  0  0  0  0  0  0  0  0  0
  -16.7380   25.0260    3.5300 C   0  0  0  0  0  0  0  0  0  0  0  0
  -16.6650   24.8460    4.7430 O   0  0  0  0  0  0  0  0  0  0  0  0
  -15.8670   26.0160    2.8860 C   0  0  0  0  0  0  0  0  0  0  0  0
  -14.9500   26.7740    3.6230 C   0  0  0  0  0  0  0  0  0  0  0  0
  -14.1320   27.7050    2.9870 C   0  0  0  0  0  0  0  0  0  0  0  0
  -14.2380   27.8680    1.6090 C   0  0  0  0  0  0  0  0  0  0  0  0
  -15.1480   27.1210    0.8650 C   0  0  0  0  0  0  0  0  0  0  0  0
  -15.9670   26.1930    1.5090 C   0  0  0  0  0  0  0  0  0  0  0  0
  -16.8520   25.4940    0.7300 O   0  0  0  0  0  0  0  0  0  0  0  0
  -13.4590   28.7660    0.9410 O   0  0  0  0  0  0  0  0  0  0  0  0
  -14.8030   26.6540    4.9800 O   0  0  0  0  0  0  0  0  0  0  0  0
  -18.4940   23.3330    3.2560 O   0  0  0  0  0  0  0  0  0  0  0  0
  -22.1490   24.0620   -0.5390 O   0  0  0  0  0  0  0  0  0  0  0  0
  -21.2630   22.2340   -2.3300 O   0  0  0  0  0  0  0  0  0  0  0  0
  -17.1120   22.6700   -0.5130 H   0  0  0  0  0  0  0  0  0  0  0  0
  -18.6460   21.6450   -2.1410 H   0  0  0  0  0  0  0  0  0  0  0  0
  -20.3690   25.0230    1.0920 H   0  0  0  0  0  0  0  0  0  0  0  0
  -13.4280   28.2840    3.5770 H   0  0  0  0  0  0  0  0  0  0  0  0
  -15.2160   27.2640   -0.2100 H   0  0  0  0  0  0  0  0  0  0  0  0
  -12.9950   29.3220    1.5900 H   0  0  0  0  0  0  0  0  0  0  0  0
  -15.4340   27.2760    5.4120 H   0  0  0  0  0  0  0  0  0  0  0  0
  -19.0440   22.9060    2.5770 H   0  0  0  0  0  0  0  0  0  0  0  0
  -22.3250   24.3850    0.3670 H   0  0  0  0  0  0  0  0  0  0  0  0
  -21.0100   21.3120   -2.5120 H   0  0  0  0  0  0  0  0  0  0  0  0
  1 23  1  0  0  0  0
  1  6  1  0  0  0  0
  2  1  2  0  0  0  0
  3  2  1  0  0  0  0
  3  4  2  0  0  0  0
  4  5  1  0  0  0  0
  5  6  2  0  0  0  0
  5 25  1  0  0  0  0
  6  7  1  0  0  0  0
  7  8  2  0  0  0  0
  8 20  1  0  0  0  0
  8  9  1  0  0  0  0
  9 10  2  0  0  0  0
 11  9  1  0  0  0  0
 11 12  1  0  0  0  0
 12 19  1  0  0  0  0
 13 26  1  0  0  0  0
 13 12  2  0  0  0  0
 14 13  1  0  0  0  0
 15 16  1  0  0  0  0
 15 14  2  0  0  0  0
 16 11  2  0  0  0  0
 17  7  1  0  0  0  0
 17 16  1  0  0  0  0
 18 28  1  0  0  0  0
 18 14  1  0  0  0  0
 19 29  1  0  0  0  0
 21  4  1  0  0  0  0
 21 31  1  0  0  0  0
 22  3  1  0  0  0  0
 24  2  1  0  0  0  0
 27 15  1  0  0  0  0
 30 20  1  0  0  0  0
 32 22  1  0  0  0  0
M  END
>  <Pose>
1

>  <Score>
-5.14

$$$$

 OpenBabel10152117223D

 32 34  0  0  0  0  0  0  0  0999 V2000
  -15.6750   22.7520    4.5740 C   0  0  0  0  0  0  0  0  0  0  0  0
  -15.8500   21.6270    5.3860 C   0  0  0  0  0  0  0  0  0  0  0  0
  -17.0420   21.4770    6.0820 C   0  0  0  0  0  0  0  0  0  0  0  0
  -18.0430   22.4400    5.9790 C   0  0  0  0  0  0  0  0  0  0  0  0
  -17.8790   23.5610    5.1760 C   0  0  0  0  0  0  0  0  0  0  0  0
  -16.6910   23.7190    4.4530 C   0  0  0  0  0  0  0  0  0  0  0  0
  -16.5120   24.8820    3.5660 C   0  0  0  0  0  0  0  0  0  0  0  0
  -15.8310   25.9810    3.9500 C   0  0  0  0  0  0  0  0  0  0  0  0
  -15.7550   27.1190    2.9940 C   0  0  0  0  0  0  0  0  0  0  0  0
  -15.1760   28.1720    3.2510 O   0  0  0  0  0  0  0  0  0  0  0  0
  -16.4140   26.9480    1.6940 C   0  0  0  0  0  0  0  0  0  0  0  0
  -16.4070   27.9640    0.7300 C   0  0  0  0  0  0  0  0  0  0  0  0
  -17.0370   27.7750   -0.4970 C   0  0  0  0  0  0  0  0  0  0  0  0
  -17.6710   26.5630   -0.7530 C   0  0  0  0  0  0  0  0  0  0  0  0
  -17.6850   25.5450    0.1980 C   0  0  0  0  0  0  0  0  0  0  0  0
  -17.0560   25.7430    1.4270 C   0  0  0  0  0  0  0  0  0  0  0  0
  -17.1120   24.7120    2.3300 O   0  0  0  0  0  0  0  0  0  0  0  0
  -18.3000   26.3310   -1.9400 O   0  0  0  0  0  0  0  0  0  0  0  0
  -15.7990   29.1760    0.9280 O   0  0  0  0  0  0  0  0  0  0  0  0
  -15.1940   26.1300    5.1690 O   0  0  0  0  0  0  0  0  0  0  0  0
  -19.2110   22.2840    6.6710 O   0  0  0  0  0  0  0  0  0  0  0  0
  -17.2820   20.3950    6.8820 O   0  0  0  0  0  0  0  0  0  0  0  0
  -14.7370   22.8720    4.0340 H   0  0  0  0  0  0  0  0  0  0  0  0
  -15.0550   20.8920    5.4590 H   0  0  0  0  0  0  0  0  0  0  0  0
  -18.6770   24.2960    5.1140 H   0  0  0  0  0  0  0  0  0  0  0  0
  -17.0220   28.5750   -1.2300 H   0  0  0  0  0  0  0  0  0  0  0  0
  -18.1860   24.6060   -0.0210 H   0  0  0  0  0  0  0  0  0  0  0  0
  -19.2530   26.2220   -1.7740 H   0  0  0  0  0  0  0  0  0  0  0  0
  -15.9630   29.4510    1.8600 H   0  0  0  0  0  0  0  0  0  0  0  0
  -15.7140   26.7300    5.7300 H   0  0  0  0  0  0  0  0  0  0  0  0
  -19.0600   22.7460    7.5200 H   0  0  0  0  0  0  0  0  0  0  0  0
  -18.2440   20.3010    6.9920 H   0  0  0  0  0  0  0  0  0  0  0  0
  1  2  1  0  0  0  0
  2 24  1  0  0  0  0
  2  3  2  0  0  0  0
  3 22  1  0  0  0  0
  4  3  1  0  0  0  0
  4 21  1  0  0  0  0
  5  4  2  0  0  0  0
  6  1  2  0  0  0  0
  6  5  1  0  0  0  0
  7  8  2  0  0  0  0
  7  6  1  0  0  0  0
  8 20  1  0  0  0  0
  9 10  2  0  0  0  0
  9  8  1  0  0  0  0
 11  9  1  0  0  0  0
 12 19  1  0  0  0  0
 12 11  2  0  0  0  0
 13 12  1  0  0  0  0
 14 13  2  0  0  0  0
 14 15  1  0  0  0  0
 15 16  2  0  0  0  0
 16 11  1  0  0  0  0
 16 17  1  0  0  0  0
 17  7  1  0  0  0  0
 18 28  1  0  0  0  0
 18 14  1  0  0  0  0
 19 29  1  0  0  0  0
 20 30  1  0  0  0  0
 21 31  1  0  0  0  0
 22 32  1  0  0  0  0
 23  1  1  0  0  0  0
 25  5  1  0  0  0  0
 26 13  1  0  0  0  0
 27 15  1  0  0  0  0
M  END
>  <Pose>
2

>  <Score>
-5.13

$$$$

 OpenBabel10152117223D

 32 34  0  0  0  0  0  0  0  0999 V2000
  -15.9020   22.3680    4.5330 C   0  0  0  0  0  0  0  0  0  0  0  0
  -16.0350   21.2700    5.3890 C   0  0  0  0  0  0  0  0  0  0  0  0
  -17.1620   21.1770    6.1960 C   0  0  0  0  0  0  0  0  0  0  0  0
  -18.1380   22.1700    6.1580 C   0  0  0  0  0  0  0  0  0  0  0  0
  -18.0150   23.2640    5.3120 C   0  0  0  0  0  0  0  0  0  0  0  0
  -16.8950   23.3640    4.4780 C   0  0  0  0  0  0  0  0  0  0  0  0
  -16.7640   24.4970    3.5470 C   0  0  0  0  0  0  0  0  0  0  0  0
  -15.7700   25.4030    3.6500 C   0  0  0  0  0  0  0  0  0  0  0  0
  -15.7620   26.5380    2.6880 C   0  0  0  0  0  0  0  0  0  0  0  0
  -14.9130   27.4260    2.7070 O   0  0  0  0  0  0  0  0  0  0  0  0
  -16.8300   26.5730    1.6820 C   0  0  0  0  0  0  0  0  0  0  0  0
  -16.9150   27.6040    0.7390 C   0  0  0  0  0  0  0  0  0  0  0  0
  -17.9370   27.6110   -0.2070 C   0  0  0  0  0  0  0  0  0  0  0  0
  -18.8710   26.5790   -0.2020 C   0  0  0  0  0  0  0  0  0  0  0  0
  -18.7980   25.5490    0.7320 C   0  0  0  0  0  0  0  0  0  0  0  0
  -17.7740   25.5500    1.6790 C   0  0  0  0  0  0  0  0  0  0  0  0
  -17.7570   24.5180    2.5820 O   0  0  0  0  0  0  0  0  0  0  0  0
  -19.8890   26.5420   -1.1080 O   0  0  0  0  0  0  0  0  0  0  0  0
  -16.0240   28.6430    0.6870 O   0  0  0  0  0  0  0  0  0  0  0  0
  -14.7530   25.3560    4.5870 O   0  0  0  0  0  0  0  0  0  0  0  0
  -19.2400   22.0700    6.9580 O   0  0  0  0  0  0  0  0  0  0  0  0
  -17.3580   20.1240    7.0450 O   0  0  0  0  0  0  0  0  0  0  0  0
  -15.0140   22.4440    3.9060 H   0  0  0  0  0  0  0  0  0  0  0  0
  -15.2590   20.5120    5.4100 H   0  0  0  0  0  0  0  0  0  0  0  0
  -18.7930   24.0230    5.3030 H   0  0  0  0  0  0  0  0  0  0  0  0
  -17.9860   28.4200   -0.9290 H   0  0  0  0  0  0  0  0  0  0  0  0
  -19.5370   24.7530    0.7190 H   0  0  0  0  0  0  0  0  0  0  0  0
  -20.7010   26.2550   -0.6560 H   0  0  0  0  0  0  0  0  0  0  0  0
  -15.8440   28.9360    1.6110 H   0  0  0  0  0  0  0  0  0  0  0  0
  -14.1470   24.6290    4.3640 H   0  0  0  0  0  0  0  0  0  0  0  0
  -19.0350   22.6260    7.7360 H   0  0  0  0  0  0  0  0  0  0  0  0
  -18.2920   19.8560    6.9910 H   0  0  0  0  0  0  0  0  0  0  0  0
  1  2  1  0  0  0  0
  2 24  1  0  0  0  0
  2  3  2  0  0  0  0
  3 22  1  0  0  0  0
  4  3  1  0  0  0  0
  4 21  1  0  0  0  0
  5  4  2  0  0  0  0
  6  1  2  0  0  0  0
  6  5  1  0  0  0  0
  7  8  2  0  0  0  0
  7  6  1  0  0  0  0
  8 20  1  0  0  0  0
  9 10  2  0  0  0  0
  9  8  1  0  0  0  0
 11  9  1  0  0  0  0
 12 11  2  0  0  0  0
 13 14  2  0  0  0  0
 13 12  1  0  0  0  0
 14 15  1  0  0  0  0
 15 16  2  0  0  0  0
 16 11  1  0  0  0  0
 16 17  1  0  0  0  0
 17  7  1  0  0  0  0
 18 28  1  0  0  0  0
 18 14  1  0  0  0  0
 19 12  1  0  0  0  0
 19 29  1  0  0  0  0
 21 31  1  0  0  0  0
 23  1  1  0  0  0  0
 25  5  1  0  0  0  0
 26 13  1  0  0  0  0
 27 15  1  0  0  0  0
 30 20  1  0  0  0  0
 32 22  1  0  0  0  0
M  END
>  <Pose>
1

>  <Score>
-4.89

$$$$
