
 OpenBabel10152117223D

 32 34  0  0  0  0  0  0  0  0999 V2000
   -6.8250   31.0670   17.5700 C   0  0  0  0  0  0  0  0  0  0  0  0
   -8.1160   31.5520   17.8040 C   0  0  0  0  0  0  0  0  0  0  0  0
   -9.2050   30.7580   17.4700 C   0  0  0  0  0  0  0  0  0  0  0  0
   -9.0110   29.5010   16.9010 C   0  0  0  0  0  0  0  0  0  0  0  0
   -7.7330   29.0110   16.6650 C   0  0  0  0  0  0  0  0  0  0  0  0
   -6.6240   29.7910   17.0130 C   0  0  0  0  0  0  0  0  0  0  0  0
   -5.2610   29.2730   16.8060 C   0  0  0  0  0  0  0  0  0  0  0  0
   -4.7060   28.3580   17.6270 C   0  0  0  0  0  0  0  0  0  0  0  0
   -3.3030   27.9420   17.3570 C   0  0  0  0  0  0  0  0  0  0  0  0
   -2.6990   27.1290   18.0530 O   0  0  0  0  0  0  0  0  0  0  0  0
   -2.6350   28.5480   16.1990 C   0  0  0  0  0  0  0  0  0  0  0  0
   -1.3130   28.2290   15.8670 C   0  0  0  0  0  0  0  0  0  0  0  0
   -0.7030   28.8170   14.7610 C   0  0  0  0  0  0  0  0  0  0  0  0
   -1.4260   29.7220   13.9910 C   0  0  0  0  0  0  0  0  0  0  0  0
   -2.7420   30.0480   14.3120 C   0  0  0  0  0  0  0  0  0  0  0  0
   -3.3450   29.4590   15.4230 C   0  0  0  0  0  0  0  0  0  0  0  0
   -4.6370   29.8260   15.7000 O   0  0  0  0  0  0  0  0  0  0  0  0
   -0.8730   30.3230   12.8990 O   0  0  0  0  0  0  0  0  0  0  0  0
   -0.5550   27.3460   16.5880 O   0  0  0  0  0  0  0  0  0  0  0  0
   -5.3470   27.7730   18.7050 O   0  0  0  0  0  0  0  0  0  0  0  0
  -10.0890   28.7300   16.5730 O   0  0  0  0  0  0  0  0  0  0  0  0
  -10.4910   31.1680   17.6830 O   0  0  0  0  0  0  0  0  0  0  0  0
   -5.9710   31.6940   17.8260 H   0  0  0  0  0  0  0  0  0  0  0  0
   -8.2450   32.5380   18.2390 H   0  0  0  0  0  0  0  0  0  0  0  0
   -7.6120   28.0260   16.2210 H   0  0  0  0  0  0  0  0  0  0  0  0
    0.3230   28.5570   14.5210 H   0  0  0  0  0  0  0  0  0  0  0  0
   -3.2890   30.7580   13.6980 H   0  0  0  0  0  0  0  0  0  0  0  0
   -0.3370   31.0790   13.1950 H   0  0  0  0  0  0  0  0  0  0  0  0
   -0.9050   27.3230   17.5090 H   0  0  0  0  0  0  0  0  0  0  0  0
   -4.9110   26.9310   18.9180 H   0  0  0  0  0  0  0  0  0  0  0  0
  -10.3890   28.3480   17.4230 H   0  0  0  0  0  0  0  0  0  0  0  0
  -11.0320   30.3860   17.8910 H   0  0  0  0  0  0  0  0  0  0  0  0
  1  2  1  0  0  0  0
  1 23  1  0  0  0  0
  2 24  1  0  0  0  0
  3 22  1  0  0  0  0
  3  2  2  0  0  0  0
  4  3  1  0  0  0  0
  5  4  2  0  0  0  0
  5  6  1  0  0  0  0
  6  1  2  0  0  0  0
  7  6  1  0  0  0  0
  7  8  2  0  0  0  0
  8 20  1  0  0  0  0
  9  8  1  0  0  0  0
  9 10  2  0  0  0  0
 11  9  1  0  0  0  0
 12 11  1  0  0  0  0
 12 19  1  0  0  0  0
 13 12  2  0  0  0  0
 14 15  2  0  0  0  0
 14 13  1  0  0  0  0
 15 16  1  0  0  0  0
 16 17  1  0  0  0  0
 16 11  2  0  0  0  0
 17  7  1  0  0  0  0
 18 28  1  0  0  0  0
 18 14  1  0  0  0  0
 19 29  1  0  0  0  0
 20 30  1  0  0  0  0
 21  4  1  0  0  0  0
 21 31  1  0  0  0  0
 22 32  1  0  0  0  0
 25  5  1  0  0  0  0
 26 13  1  0  0  0  0
 27 15  1  0  0  0  0
M  END
>  <Pose>
1

>  <Score>
-4.72

$$$$

 OpenBabel10152117223D

 32 34  0  0  0  0  0  0  0  0999 V2000
   -7.8400   31.6420   17.7780 C   0  0  0  0  0  0  0  0  0  0  0  0
   -6.9810   30.5410   17.6950 C   0  0  0  0  0  0  0  0  0  0  0  0
   -7.4840   29.3270   17.2470 C   0  0  0  0  0  0  0  0  0  0  0  0
   -8.8270   29.2080   16.8960 C   0  0  0  0  0  0  0  0  0  0  0  0
   -9.6870   30.2960   16.9740 C   0  0  0  0  0  0  0  0  0  0  0  0
   -9.1930   31.5320   17.4070 C   0  0  0  0  0  0  0  0  0  0  0  0
  -10.0800   32.7060   17.4610 C   0  0  0  0  0  0  0  0  0  0  0  0
  -10.9510   32.9040   18.4720 C   0  0  0  0  0  0  0  0  0  0  0  0
  -11.8370   34.0970   18.4010 C   0  0  0  0  0  0  0  0  0  0  0  0
  -12.6760   34.3600   19.2600 O   0  0  0  0  0  0  0  0  0  0  0  0
  -11.6800   34.9820   17.2410 C   0  0  0  0  0  0  0  0  0  0  0  0
  -12.4720   36.1250   17.0790 C   0  0  0  0  0  0  0  0  0  0  0  0
  -12.3010   36.9500   15.9700 C   0  0  0  0  0  0  0  0  0  0  0  0
  -11.3300   36.6240   15.0280 C   0  0  0  0  0  0  0  0  0  0  0  0
  -10.5360   35.4890   15.1780 C   0  0  0  0  0  0  0  0  0  0  0  0
  -10.7160   34.6650   16.2890 C   0  0  0  0  0  0  0  0  0  0  0  0
   -9.9160   33.5550   16.3790 O   0  0  0  0  0  0  0  0  0  0  0  0
  -11.1240   37.4010   13.9270 O   0  0  0  0  0  0  0  0  0  0  0  0
  -13.4410   36.4940   17.9740 O   0  0  0  0  0  0  0  0  0  0  0  0
  -11.0810   32.0780   19.5740 O   0  0  0  0  0  0  0  0  0  0  0  0
   -9.3120   28.0080   16.4590 O   0  0  0  0  0  0  0  0  0  0  0  0
   -6.6960   28.2160   17.1310 O   0  0  0  0  0  0  0  0  0  0  0  0
   -7.4460   32.5930   18.1360 H   0  0  0  0  0  0  0  0  0  0  0  0
   -5.9410   30.6530   17.9820 H   0  0  0  0  0  0  0  0  0  0  0  0
  -10.7300   30.1740   16.6930 H   0  0  0  0  0  0  0  0  0  0  0  0
  -12.9260   37.8300   15.8620 H   0  0  0  0  0  0  0  0  0  0  0  0
   -9.7840   35.2520   14.4310 H   0  0  0  0  0  0  0  0  0  0  0  0
  -10.5580   36.9150   13.3020 H   0  0  0  0  0  0  0  0  0  0  0  0
  -14.3100   36.4740   17.5090 H   0  0  0  0  0  0  0  0  0  0  0  0
  -11.2220   31.1640   19.2740 H   0  0  0  0  0  0  0  0  0  0  0  0
  -10.1160   27.8560   16.9940 H   0  0  0  0  0  0  0  0  0  0  0  0
   -6.7670   27.7030   17.9540 H   0  0  0  0  0  0  0  0  0  0  0  0
  1 23  1  0  0  0  0
  2  1  1  0  0  0  0
  2 24  1  0  0  0  0
  3  2  2  0  0  0  0
  4  5  2  0  0  0  0
  4  3  1  0  0  0  0
  5  6  1  0  0  0  0
  6  7  1  0  0  0  0
  6  1  2  0  0  0  0
  7  8  2  0  0  0  0
  8 20  1  0  0  0  0
  9  8  1  0  0  0  0
  9 10  2  0  0  0  0
 11  9  1  0  0  0  0
 12 11  1  0  0  0  0
 12 19  1  0  0  0  0
 13 12  2  0  0  0  0
 14 15  2  0  0  0  0
 14 13  1  0  0  0  0
 15 16  1  0  0  0  0
 16 17  1  0  0  0  0
 16 11  2  0  0  0  0
 17  7  1  0  0  0  0
 18 14  1  0  0  0  0
 21  4  1  0  0  0  0
 21 31  1  0  0  0  0
 22  3  1  0  0  0  0
 22 32  1  0  0  0  0
 25  5  1  0  0  0  0
 26 13  1  0  0  0  0
 27 15  1  0  0  0  0
 28 18  1  0  0  0  0
 29 19  1  0  0  0  0
 30 20  1  0  0  0  0
M  END
>  <Pose>
1

>  <Score>
-4.63

$$$$

 OpenBabel10152117223D

 32 34  0  0  0  0  0  0  0  0999 V2000
   -8.6560   29.3420   16.6610 C   0  0  0  0  0  0  0  0  0  0  0  0
   -9.8640   30.0440   16.7330 C   0  0  0  0  0  0  0  0  0  0  0  0
   -9.8810   31.2970   17.3310 C   0  0  0  0  0  0  0  0  0  0  0  0
   -8.7120   31.8400   17.8600 C   0  0  0  0  0  0  0  0  0  0  0  0
   -7.5080   31.1520   17.7930 C   0  0  0  0  0  0  0  0  0  0  0  0
   -7.4690   29.8950   17.1770 C   0  0  0  0  0  0  0  0  0  0  0  0
   -6.1940   29.1660   17.0630 C   0  0  0  0  0  0  0  0  0  0  0  0
   -5.9690   28.0050   17.7110 C   0  0  0  0  0  0  0  0  0  0  0  0
   -4.6270   27.3780   17.5660 C   0  0  0  0  0  0  0  0  0  0  0  0
   -4.3130   26.3310   18.1280 O   0  0  0  0  0  0  0  0  0  0  0  0
   -3.6550   28.0650   16.7090 C   0  0  0  0  0  0  0  0  0  0  0  0
   -2.3630   27.5600   16.5170 C   0  0  0  0  0  0  0  0  0  0  0  0
   -1.4600   28.2310   15.6950 C   0  0  0  0  0  0  0  0  0  0  0  0
   -1.8600   29.4060   15.0670 C   0  0  0  0  0  0  0  0  0  0  0  0
   -3.1410   29.9190   15.2520 C   0  0  0  0  0  0  0  0  0  0  0  0
   -4.0400   29.2450   16.0790 C   0  0  0  0  0  0  0  0  0  0  0  0
   -5.2840   29.8010   16.2350 O   0  0  0  0  0  0  0  0  0  0  0  0
   -1.0120   30.0980   14.2540 O   0  0  0  0  0  0  0  0  0  0  0  0
   -1.9160   26.4090   17.1090 O   0  0  0  0  0  0  0  0  0  0  0  0
   -6.8960   27.3490   18.5020 O   0  0  0  0  0  0  0  0  0  0  0  0
   -8.7410   33.0720   18.4480 O   0  0  0  0  0  0  0  0  0  0  0  0
  -11.0250   32.0390   17.4230 O   0  0  0  0  0  0  0  0  0  0  0  0
   -8.6450   28.3560   16.1980 H   0  0  0  0  0  0  0  0  0  0  0  0
  -10.7650   29.5980   16.3240 H   0  0  0  0  0  0  0  0  0  0  0  0
   -6.6110   31.6010   18.2120 H   0  0  0  0  0  0  0  0  0  0  0  0
   -0.4620   27.8240   15.5600 H   0  0  0  0  0  0  0  0  0  0  0  0
   -3.4340   30.8390   14.7530 H   0  0  0  0  0  0  0  0  0  0  0  0
   -1.4790   30.8740   13.9010 H   0  0  0  0  0  0  0  0  0  0  0  0
   -2.3510   26.3300   17.9890 H   0  0  0  0  0  0  0  0  0  0  0  0
   -6.5420   26.4820   18.7580 H   0  0  0  0  0  0  0  0  0  0  0  0
   -9.5110   33.0420   19.0510 H   0  0  0  0  0  0  0  0  0  0  0  0
  -11.7160   31.4880   17.8310 H   0  0  0  0  0  0  0  0  0  0  0  0
  1  2  2  0  0  0  0
  1  6  1  0  0  0  0
  2  3  1  0  0  0  0
  3 22  1  0  0  0  0
  3  4  2  0  0  0  0
  4 21  1  0  0  0  0
  5  4  1  0  0  0  0
  5 25  1  0  0  0  0
  6  5  2  0  0  0  0
  7  6  1  0  0  0  0
  7  8  2  0  0  0  0
  8 20  1  0  0  0  0
  9  8  1  0  0  0  0
  9 10  2  0  0  0  0
 11  9  1  0  0  0  0
 12 11  1  0  0  0  0
 12 19  1  0  0  0  0
 13 12  2  0  0  0  0
 14 15  2  0  0  0  0
 14 13  1  0  0  0  0
 15 16  1  0  0  0  0
 16 17  1  0  0  0  0
 16 11  2  0  0  0  0
 17  7  1  0  0  0  0
 18 14  1  0  0  0  0
 19 29  1  0  0  0  0
 20 30  1  0  0  0  0
 21 31  1  0  0  0  0
 22 32  1  0  0  0  0
 23  1  1  0  0  0  0
 24  2  1  0  0  0  0
 26 13  1  0  0  0  0
 27 15  1  0  0  0  0
 28 18  1  0  0  0  0
M  END
>  <Pose>
1

>  <Score>
-4.46

$$$$

 OpenBabel10152117223D

 32 34  0  0  0  0  0  0  0  0999 V2000
   -5.0140   30.1090   16.9050 C   0  0  0  0  0  0  0  0  0  0  0  0
   -3.8380   29.3920   16.6640 C   0  0  0  0  0  0  0  0  0  0  0  0
   -3.7610   28.0660   17.0670 C   0  0  0  0  0  0  0  0  0  0  0  0
   -4.8390   27.4630   17.7120 C   0  0  0  0  0  0  0  0  0  0  0  0
   -6.0110   28.1660   17.9560 C   0  0  0  0  0  0  0  0  0  0  0  0
   -6.1130   29.4980   17.5400 C   0  0  0  0  0  0  0  0  0  0  0  0
   -7.3610   30.2490   17.7560 C   0  0  0  0  0  0  0  0  0  0  0  0
   -8.4200   30.1380   16.9290 C   0  0  0  0  0  0  0  0  0  0  0  0
   -9.6130   30.9810   17.2110 C   0  0  0  0  0  0  0  0  0  0  0  0
  -10.6220   30.9700   16.5100 O   0  0  0  0  0  0  0  0  0  0  0  0
   -9.5520   31.8590   18.3850 C   0  0  0  0  0  0  0  0  0  0  0  0
  -10.6200   32.6970   18.7300 C   0  0  0  0  0  0  0  0  0  0  0  0
  -10.5370   33.5180   19.8520 C   0  0  0  0  0  0  0  0  0  0  0  0
   -9.3810   33.4910   20.6270 C   0  0  0  0  0  0  0  0  0  0  0  0
   -8.3130   32.6620   20.2940 C   0  0  0  0  0  0  0  0  0  0  0  0
   -8.4000   31.8450   19.1660 C   0  0  0  0  0  0  0  0  0  0  0  0
   -7.3140   31.0590   18.8790 O   0  0  0  0  0  0  0  0  0  0  0  0
   -9.2540   34.2750   21.7350 O   0  0  0  0  0  0  0  0  0  0  0  0
  -11.7790   32.7640   18.0050 O   0  0  0  0  0  0  0  0  0  0  0  0
   -8.4810   29.2940   15.8340 O   0  0  0  0  0  0  0  0  0  0  0  0
   -4.7510   26.1590   18.1060 O   0  0  0  0  0  0  0  0  0  0  0  0
   -2.6450   27.3070   16.8490 O   0  0  0  0  0  0  0  0  0  0  0  0
   -5.0710   31.1510   16.5950 H   0  0  0  0  0  0  0  0  0  0  0  0
   -3.0060   29.8830   16.1680 H   0  0  0  0  0  0  0  0  0  0  0  0
   -6.8360   27.6690   18.4600 H   0  0  0  0  0  0  0  0  0  0  0  0
  -11.3750   34.1610   20.1010 H   0  0  0  0  0  0  0  0  0  0  0  0
   -7.4190   32.6560   20.9110 H   0  0  0  0  0  0  0  0  0  0  0  0
  -10.1020   34.2850   22.2110 H   0  0  0  0  0  0  0  0  0  0  0  0
  -12.3070   31.9540   18.1970 H   0  0  0  0  0  0  0  0  0  0  0  0
   -7.9980   29.6970   15.0930 H   0  0  0  0  0  0  0  0  0  0  0  0
   -4.8230   26.1890   19.0810 H   0  0  0  0  0  0  0  0  0  0  0  0
   -2.3020   27.0120   17.7100 H   0  0  0  0  0  0  0  0  0  0  0  0
  1  6  1  0  0  0  0
  2  1  2  0  0  0  0
  2  3  1  0  0  0  0
  3  4  2  0  0  0  0
  4  5  1  0  0  0  0
  4 21  1  0  0  0  0
  5 25  1  0  0  0  0
  6  7  1  0  0  0  0
  6  5  2  0  0  0  0
  7 17  1  0  0  0  0
  8  9  1  0  0  0  0
  8  7  2  0  0  0  0
  9 11  1  0  0  0  0
 10  9  2  0  0  0  0
 11 12  2  0  0  0  0
 11 16  1  0  0  0  0
 12 13  1  0  0  0  0
 13 26  1  0  0  0  0
 13 14  2  0  0  0  0
 14 18  1  0  0  0  0
 15 14  1  0  0  0  0
 15 27  1  0  0  0  0
 16 15  2  0  0  0  0
 17 16  1  0  0  0  0
 18 28  1  0  0  0  0
 19 29  1  0  0  0  0
 19 12  1  0  0  0  0
 20  8  1  0  0  0  0
 21 31  1  0  0  0  0
 22  3  1  0  0  0  0
 22 32  1  0  0  0  0
 23  1  1  0  0  0  0
 24  2  1  0  0  0  0
 30 20  1  0  0  0  0
M  END
>  <Pose>
2

>  <Score>
-4.43

$$$$
