
 OpenBabel10152117223D

 32 34  0  0  0  0  0  0  0  0999 V2000
  -28.0290  -15.4240   20.9510 C   0  0  0  0  0  0  0  0  0  0  0  0
  -27.1060  -16.4730   21.0010 C   0  0  0  0  0  0  0  0  0  0  0  0
  -27.0900  -17.4070   19.9740 C   0  0  0  0  0  0  0  0  0  0  0  0
  -27.9880  -17.3030   18.9140 C   0  0  0  0  0  0  0  0  0  0  0  0
  -28.9080  -16.2640   18.8550 C   0  0  0  0  0  0  0  0  0  0  0  0
  -28.9260  -15.3040   19.8730 C   0  0  0  0  0  0  0  0  0  0  0  0
  -29.8690  -14.1740   19.8090 C   0  0  0  0  0  0  0  0  0  0  0  0
  -29.4530  -12.8940   19.7260 C   0  0  0  0  0  0  0  0  0  0  0  0
  -30.4890  -11.8260   19.7190 C   0  0  0  0  0  0  0  0  0  0  0  0
  -30.2170  -10.6290   19.6650 O   0  0  0  0  0  0  0  0  0  0  0  0
  -31.8920  -12.2520   19.7850 C   0  0  0  0  0  0  0  0  0  0  0  0
  -32.9400  -11.3230   19.7930 C   0  0  0  0  0  0  0  0  0  0  0  0
  -34.2630  -11.7540   19.8530 C   0  0  0  0  0  0  0  0  0  0  0  0
  -34.5280  -13.1200   19.9000 C   0  0  0  0  0  0  0  0  0  0  0  0
  -33.4940  -14.0530   19.8930 C   0  0  0  0  0  0  0  0  0  0  0  0
  -32.1710  -13.6140   19.8380 C   0  0  0  0  0  0  0  0  0  0  0  0
  -31.1940  -14.5760   19.8460 O   0  0  0  0  0  0  0  0  0  0  0  0
  -35.8060  -13.5900   19.9590 O   0  0  0  0  0  0  0  0  0  0  0  0
  -32.7370   -9.9700   19.7480 O   0  0  0  0  0  0  0  0  0  0  0  0
  -28.1300  -12.4970   19.6440 O   0  0  0  0  0  0  0  0  0  0  0  0
  -27.9650  -18.2280   17.9100 O   0  0  0  0  0  0  0  0  0  0  0  0
  -26.2060  -18.4490   19.9570 O   0  0  0  0  0  0  0  0  0  0  0  0
  -28.0460  -14.6960   21.7610 H   0  0  0  0  0  0  0  0  0  0  0  0
  -26.4210  -16.5420   21.8400 H   0  0  0  0  0  0  0  0  0  0  0  0
  -29.5970  -16.2070   18.0150 H   0  0  0  0  0  0  0  0  0  0  0  0
  -35.0610  -11.0190   19.8600 H   0  0  0  0  0  0  0  0  0  0  0  0
  -33.7220  -15.1150   19.9320 H   0  0  0  0  0  0  0  0  0  0  0  0
  -35.8600  -14.4170   19.4500 H   0  0  0  0  0  0  0  0  0  0  0  0
  -32.3750   -9.7440   18.8590 H   0  0  0  0  0  0  0  0  0  0  0  0
  -28.0920  -11.5390   19.4880 H   0  0  0  0  0  0  0  0  0  0  0  0
  -27.0670  -18.1600   17.5300 H   0  0  0  0  0  0  0  0  0  0  0  0
  -25.8110  -18.5020   19.0690 H   0  0  0  0  0  0  0  0  0  0  0  0
  1  2  1  0  0  0  0
  1 23  1  0  0  0  0
  2 24  1  0  0  0  0
  3  2  2  0  0  0  0
  4  3  1  0  0  0  0
  5  4  2  0  0  0  0
  5  6  1  0  0  0  0
  6  1  2  0  0  0  0
  7 17  1  0  0  0  0
  7  6  1  0  0  0  0
  8  7  2  0  0  0  0
  9  8  1  0  0  0  0
  9 11  1  0  0  0  0
 10  9  2  0  0  0  0
 11 12  2  0  0  0  0
 11 16  1  0  0  0  0
 12 13  1  0  0  0  0
 13 26  1  0  0  0  0
 13 14  2  0  0  0  0
 14 18  1  0  0  0  0
 15 14  1  0  0  0  0
 15 27  1  0  0  0  0
 16 17  1  0  0  0  0
 16 15  2  0  0  0  0
 19 12  1  0  0  0  0
 20  8  1  0  0  0  0
 21  4  1  0  0  0  0
 22  3  1  0  0  0  0
 25  5  1  0  0  0  0
 28 18  1  0  0  0  0
 29 19  1  0  0  0  0
 30 20  1  0  0  0  0
 31 21  1  0  0  0  0
 32 22  1  0  0  0  0
M  END
>  <Pose>
1

>  <Score>
-4.25

$$$$

 OpenBabel10152117223D

 32 34  0  0  0  0  0  0  0  0999 V2000
  -27.1570  -14.9230   21.4520 C   0  0  0  0  0  0  0  0  0  0  0  0
  -26.1690  -15.9020   21.3060 C   0  0  0  0  0  0  0  0  0  0  0  0
  -26.3410  -16.8960   20.3520 C   0  0  0  0  0  0  0  0  0  0  0  0
  -27.4880  -16.9220   19.5610 C   0  0  0  0  0  0  0  0  0  0  0  0
  -28.4740  -15.9540   19.6980 C   0  0  0  0  0  0  0  0  0  0  0  0
  -28.3090  -14.9340   20.6420 C   0  0  0  0  0  0  0  0  0  0  0  0
  -29.3250  -13.8770   20.7770 C   0  0  0  0  0  0  0  0  0  0  0  0
  -29.4550  -12.8830   19.8750 C   0  0  0  0  0  0  0  0  0  0  0  0
  -30.4810  -11.8380   20.1360 C   0  0  0  0  0  0  0  0  0  0  0  0
  -30.6680  -10.8810   19.3870 O   0  0  0  0  0  0  0  0  0  0  0  0
  -31.2910  -11.9810   21.3500 C   0  0  0  0  0  0  0  0  0  0  0  0
  -32.2770  -11.0450   21.6890 C   0  0  0  0  0  0  0  0  0  0  0  0
  -33.0340  -11.2070   22.8460 C   0  0  0  0  0  0  0  0  0  0  0  0
  -32.8000  -12.3120   23.6590 C   0  0  0  0  0  0  0  0  0  0  0  0
  -31.8220  -13.2490   23.3340 C   0  0  0  0  0  0  0  0  0  0  0  0
  -31.0640  -13.0790   22.1760 C   0  0  0  0  0  0  0  0  0  0  0  0
  -30.1070  -14.0250   21.9110 O   0  0  0  0  0  0  0  0  0  0  0  0
  -33.5160  -12.5130   24.8020 O   0  0  0  0  0  0  0  0  0  0  0  0
  -32.5500   -9.9410   20.9260 O   0  0  0  0  0  0  0  0  0  0  0  0
  -28.7020  -12.7630   18.7200 O   0  0  0  0  0  0  0  0  0  0  0  0
  -27.6480  -17.9060   18.6280 O   0  0  0  0  0  0  0  0  0  0  0  0
  -25.4080  -17.8740   20.1500 O   0  0  0  0  0  0  0  0  0  0  0  0
  -27.0240  -14.1470   22.2050 H   0  0  0  0  0  0  0  0  0  0  0  0
  -25.2880  -15.8690   21.9380 H   0  0  0  0  0  0  0  0  0  0  0  0
  -29.3580  -15.9980   19.0670 H   0  0  0  0  0  0  0  0  0  0  0  0
  -33.7920  -10.4700   23.0920 H   0  0  0  0  0  0  0  0  0  0  0  0
  -31.6540  -14.1040   23.9830 H   0  0  0  0  0  0  0  0  0  0  0  0
  -33.3950  -11.7460   25.3880 H   0  0  0  0  0  0  0  0  0  0  0  0
  -32.6030   -9.1610   21.5260 H   0  0  0  0  0  0  0  0  0  0  0  0
  -28.0290  -13.4630   18.7030 H   0  0  0  0  0  0  0  0  0  0  0  0
  -26.7390  -18.1970   18.4140 H   0  0  0  0  0  0  0  0  0  0  0  0
  -25.4660  -18.1680   19.2250 H   0  0  0  0  0  0  0  0  0  0  0  0
  1 23  1  0  0  0  0
  2  1  1  0  0  0  0
  2 24  1  0  0  0  0
  3  2  2  0  0  0  0
  4  5  2  0  0  0  0
  4  3  1  0  0  0  0
  5  6  1  0  0  0  0
  6  7  1  0  0  0  0
  6  1  2  0  0  0  0
  7 17  1  0  0  0  0
  8  9  1  0  0  0  0
  8  7  2  0  0  0  0
  9 11  1  0  0  0  0
 10  9  2  0  0  0  0
 11 12  2  0  0  0  0
 11 16  1  0  0  0  0
 12 13  1  0  0  0  0
 13 26  1  0  0  0  0
 13 14  2  0  0  0  0
 14 18  1  0  0  0  0
 15 14  1  0  0  0  0
 15 27  1  0  0  0  0
 16 15  2  0  0  0  0
 17 16  1  0  0  0  0
 18 28  1  0  0  0  0
 19 29  1  0  0  0  0
 19 12  1  0  0  0  0
 20  8  1  0  0  0  0
 21  4  1  0  0  0  0
 22  3  1  0  0  0  0
 25  5  1  0  0  0  0
 30 20  1  0  0  0  0
 31 21  1  0  0  0  0
 32 22  1  0  0  0  0
M  END
>  <Pose>
1

>  <Score>
-4.12

$$$$

 OpenBabel10152117223D

 32 34  0  0  0  0  0  0  0  0999 V2000
  -31.1600  -13.8410   19.5800 C   0  0  0  0  0  0  0  0  0  0  0  0
  -32.3950  -13.4980   19.0200 C   0  0  0  0  0  0  0  0  0  0  0  0
  -32.8610  -12.1980   19.1600 C   0  0  0  0  0  0  0  0  0  0  0  0
  -32.1130  -11.2530   19.8590 C   0  0  0  0  0  0  0  0  0  0  0  0
  -30.8860  -11.5830   20.4190 C   0  0  0  0  0  0  0  0  0  0  0  0
  -30.3920  -12.8850   20.2710 C   0  0  0  0  0  0  0  0  0  0  0  0
  -29.0760  -13.2450   20.8250 C   0  0  0  0  0  0  0  0  0  0  0  0
  -27.9590  -13.2680   20.0700 C   0  0  0  0  0  0  0  0  0  0  0  0
  -26.6900  -13.6960   20.7180 C   0  0  0  0  0  0  0  0  0  0  0  0
  -25.6210  -13.7690   20.1170 O   0  0  0  0  0  0  0  0  0  0  0  0
  -26.7490  -14.0440   22.1430 C   0  0  0  0  0  0  0  0  0  0  0  0
  -25.6120  -14.4670   22.8410 C   0  0  0  0  0  0  0  0  0  0  0  0
  -25.6950  -14.7880   24.1940 C   0  0  0  0  0  0  0  0  0  0  0  0
  -26.9220  -14.6790   24.8420 C   0  0  0  0  0  0  0  0  0  0  0  0
  -28.0600  -14.2600   24.1570 C   0  0  0  0  0  0  0  0  0  0  0  0
  -27.9710  -13.9450   22.8010 C   0  0  0  0  0  0  0  0  0  0  0  0
  -29.1250  -13.5500   22.1750 O   0  0  0  0  0  0  0  0  0  0  0  0
  -27.0530  -14.9810   26.1650 O   0  0  0  0  0  0  0  0  0  0  0  0
  -24.3800  -14.5920   22.2560 O   0  0  0  0  0  0  0  0  0  0  0  0
  -27.9030  -12.9200   18.7310 O   0  0  0  0  0  0  0  0  0  0  0  0
  -32.5820   -9.9780   19.9930 O   0  0  0  0  0  0  0  0  0  0  0  0
  -34.0530  -11.7950   18.6260 O   0  0  0  0  0  0  0  0  0  0  0  0
  -30.7980  -14.8630   19.4750 H   0  0  0  0  0  0  0  0  0  0  0  0
  -32.9670  -14.2510   18.4870 H   0  0  0  0  0  0  0  0  0  0  0  0
  -30.3230  -10.8260   20.9570 H   0  0  0  0  0  0  0  0  0  0  0  0
  -24.8020  -15.1160   24.7180 H   0  0  0  0  0  0  0  0  0  0  0  0
  -29.0090  -14.1830   24.6810 H   0  0  0  0  0  0  0  0  0  0  0  0
  -26.9870  -14.1600   26.6820 H   0  0  0  0  0  0  0  0  0  0  0  0
  -24.4690  -14.3530   21.3040 H   0  0  0  0  0  0  0  0  0  0  0  0
  -27.1260  -12.3570   18.5800 H   0  0  0  0  0  0  0  0  0  0  0  0
  -32.7070   -9.6610   19.0760 H   0  0  0  0  0  0  0  0  0  0  0  0
  -33.8790  -11.0770   17.9930 H   0  0  0  0  0  0  0  0  0  0  0  0
  1  6  1  0  0  0  0
  2  3  1  0  0  0  0
  2  1  2  0  0  0  0
  3  4  2  0  0  0  0
  4 21  1  0  0  0  0
  4  5  1  0  0  0  0
  5 25  1  0  0  0  0
  6  5  2  0  0  0  0
  6  7  1  0  0  0  0
  7 17  1  0  0  0  0
  8  9  1  0  0  0  0
  8  7  2  0  0  0  0
  9 11  1  0  0  0  0
 10  9  2  0  0  0  0
 11 16  2  0  0  0  0
 11 12  1  0  0  0  0
 12 13  2  0  0  0  0
 13 26  1  0  0  0  0
 13 14  1  0  0  0  0
 14 18  1  0  0  0  0
 15 27  1  0  0  0  0
 15 14  2  0  0  0  0
 16 15  1  0  0  0  0
 17 16  1  0  0  0  0
 18 28  1  0  0  0  0
 19 12  1  0  0  0  0
 20  8  1  0  0  0  0
 22  3  1  0  0  0  0
 23  1  1  0  0  0  0
 24  2  1  0  0  0  0
 29 19  1  0  0  0  0
 30 20  1  0  0  0  0
 31 21  1  0  0  0  0
 32 22  1  0  0  0  0
M  END
>  <Pose>
1

>  <Score>
-3.93

$$$$

 OpenBabel10152117223D

 32 34  0  0  0  0  0  0  0  0999 V2000
  -27.1020  -14.0910   21.2870 C   0  0  0  0  0  0  0  0  0  0  0  0
  -25.9870  -14.9020   21.0560 C   0  0  0  0  0  0  0  0  0  0  0  0
  -26.1650  -16.1340   20.4390 C   0  0  0  0  0  0  0  0  0  0  0  0
  -27.4380  -16.5560   20.0660 C   0  0  0  0  0  0  0  0  0  0  0  0
  -28.5520  -15.7580   20.2910 C   0  0  0  0  0  0  0  0  0  0  0  0
  -28.3890  -14.5060   20.8950 C   0  0  0  0  0  0  0  0  0  0  0  0
  -29.5530  -13.6290   21.1080 C   0  0  0  0  0  0  0  0  0  0  0  0
  -29.8040  -13.0430   22.2960 C   0  0  0  0  0  0  0  0  0  0  0  0
  -31.0360  -12.2170   22.4160 C   0  0  0  0  0  0  0  0  0  0  0  0
  -31.3680  -11.6550   23.4570 O   0  0  0  0  0  0  0  0  0  0  0  0
  -31.8760  -12.0870   21.2200 C   0  0  0  0  0  0  0  0  0  0  0  0
  -33.0600  -11.3400   21.2330 C   0  0  0  0  0  0  0  0  0  0  0  0
  -33.8370  -11.2300   20.0830 C   0  0  0  0  0  0  0  0  0  0  0  0
  -33.4200  -11.8710   18.9200 C   0  0  0  0  0  0  0  0  0  0  0  0
  -32.2450  -12.6180   18.8950 C   0  0  0  0  0  0  0  0  0  0  0  0
  -31.4730  -12.7280   20.0520 C   0  0  0  0  0  0  0  0  0  0  0  0
  -30.3330  -13.4860   19.9720 O   0  0  0  0  0  0  0  0  0  0  0  0
  -34.1470  -11.7930   17.7690 O   0  0  0  0  0  0  0  0  0  0  0  0
  -33.5180  -10.6890   22.3470 O   0  0  0  0  0  0  0  0  0  0  0  0
  -28.9990  -13.1510   23.4160 O   0  0  0  0  0  0  0  0  0  0  0  0
  -27.6020  -17.7700   19.4630 O   0  0  0  0  0  0  0  0  0  0  0  0
  -25.1150  -16.9680   20.1740 O   0  0  0  0  0  0  0  0  0  0  0  0
  -26.9630  -13.1280   21.7770 H   0  0  0  0  0  0  0  0  0  0  0  0
  -25.0040  -14.5580   21.3630 H   0  0  0  0  0  0  0  0  0  0  0  0
  -29.5340  -16.1130   19.9880 H   0  0  0  0  0  0  0  0  0  0  0  0
  -34.7530  -10.6470   20.1140 H   0  0  0  0  0  0  0  0  0  0  0  0
  -31.9370  -13.1120   17.9770 H   0  0  0  0  0  0  0  0  0  0  0  0
  -33.8630  -11.0070   17.2720 H   0  0  0  0  0  0  0  0  0  0  0  0
  -33.2020   -9.7560   22.3080 H   0  0  0  0  0  0  0  0  0  0  0  0
  -28.7420  -12.2610   23.7120 H   0  0  0  0  0  0  0  0  0  0  0  0
  -26.7360  -17.9620   19.0510 H   0  0  0  0  0  0  0  0  0  0  0  0
  -25.1330  -17.1930   19.2280 H   0  0  0  0  0  0  0  0  0  0  0  0
  1 23  1  0  0  0  0
  2  1  1  0  0  0  0
  2 24  1  0  0  0  0
  3  2  2  0  0  0  0
  4  5  2  0  0  0  0
  4  3  1  0  0  0  0
  5  6  1  0  0  0  0
  6  7  1  0  0  0  0
  6  1  2  0  0  0  0
  7  8  2  0  0  0  0
  8  9  1  0  0  0  0
  8 20  1  0  0  0  0
  9 10  2  0  0  0  0
 11 12  1  0  0  0  0
 11  9  1  0  0  0  0
 12 19  1  0  0  0  0
 13 26  1  0  0  0  0
 13 12  2  0  0  0  0
 14 13  1  0  0  0  0
 15 14  2  0  0  0  0
 15 16  1  0  0  0  0
 16 11  2  0  0  0  0
 17 16  1  0  0  0  0
 17  7  1  0  0  0  0
 18 14  1  0  0  0  0
 20 30  1  0  0  0  0
 21  4  1  0  0  0  0
 22  3  1  0  0  0  0
 25  5  1  0  0  0  0
 27 15  1  0  0  0  0
 28 18  1  0  0  0  0
 29 19  1  0  0  0  0
 31 21  1  0  0  0  0
 32 22  1  0  0  0  0
M  END
>  <Pose>
1

>  <Score>
-3.87

$$$$

 OpenBabel10152117223D

 32 34  0  0  0  0  0  0  0  0999 V2000
  -30.9180  -11.7880   19.4370 C   0  0  0  0  0  0  0  0  0  0  0  0
  -31.8660  -10.7630   19.5240 C   0  0  0  0  0  0  0  0  0  0  0  0
  -32.5890  -10.6120   20.7000 C   0  0  0  0  0  0  0  0  0  0  0  0
  -32.3780  -11.4760   21.7720 C   0  0  0  0  0  0  0  0  0  0  0  0
  -31.4380  -12.4960   21.6960 C   0  0  0  0  0  0  0  0  0  0  0  0
  -30.6880  -12.6520   20.5240 C   0  0  0  0  0  0  0  0  0  0  0  0
  -29.6600  -13.7030   20.4370 C   0  0  0  0  0  0  0  0  0  0  0  0
  -29.9040  -14.9020   19.8690 C   0  0  0  0  0  0  0  0  0  0  0  0
  -28.8110  -15.9110   19.8810 C   0  0  0  0  0  0  0  0  0  0  0  0
  -28.9340  -17.0390   19.4080 O   0  0  0  0  0  0  0  0  0  0  0  0
  -27.5380  -15.5140   20.4940 C   0  0  0  0  0  0  0  0  0  0  0  0
  -26.4510  -16.3950   20.5620 C   0  0  0  0  0  0  0  0  0  0  0  0
  -25.2530  -15.9920   21.1460 C   0  0  0  0  0  0  0  0  0  0  0  0
  -25.1500  -14.7020   21.6580 C   0  0  0  0  0  0  0  0  0  0  0  0
  -26.2240  -13.8170   21.5970 C   0  0  0  0  0  0  0  0  0  0  0  0
  -27.4230  -14.2290   21.0150 C   0  0  0  0  0  0  0  0  0  0  0  0
  -28.4510  -13.3210   20.9930 O   0  0  0  0  0  0  0  0  0  0  0  0
  -23.9980  -14.2610   22.2390 O   0  0  0  0  0  0  0  0  0  0  0  0
  -26.4960  -17.6740   20.0740 O   0  0  0  0  0  0  0  0  0  0  0  0
  -31.1000  -15.2650   19.2740 O   0  0  0  0  0  0  0  0  0  0  0  0
  -33.0960  -11.3200   22.9230 O   0  0  0  0  0  0  0  0  0  0  0  0
  -33.5210   -9.6250   20.8540 O   0  0  0  0  0  0  0  0  0  0  0  0
  -30.3560  -11.9100   18.5120 H   0  0  0  0  0  0  0  0  0  0  0  0
  -32.0220  -10.1060   18.6740 H   0  0  0  0  0  0  0  0  0  0  0  0
  -31.2930  -13.1550   22.5480 H   0  0  0  0  0  0  0  0  0  0  0  0
  -24.4230  -16.6900   21.1900 H   0  0  0  0  0  0  0  0  0  0  0  0
  -26.1240  -12.8150   22.0040 H   0  0  0  0  0  0  0  0  0  0  0  0
  -23.6300  -13.5420   21.6980 H   0  0  0  0  0  0  0  0  0  0  0  0
  -25.8820  -17.7300   19.3050 H   0  0  0  0  0  0  0  0  0  0  0  0
  -31.3380  -16.1640   19.5580 H   0  0  0  0  0  0  0  0  0  0  0  0
  -33.2440  -10.3560   22.9950 H   0  0  0  0  0  0  0  0  0  0  0  0
  -33.1050   -8.8810   21.3240 H   0  0  0  0  0  0  0  0  0  0  0  0
  1  2  2  0  0  0  0
  1  6  1  0  0  0  0
  2  3  1  0  0  0  0
  3 22  1  0  0  0  0
  3  4  2  0  0  0  0
  4 21  1  0  0  0  0
  5  4  1  0  0  0  0
  5 25  1  0  0  0  0
  6  5  2  0  0  0  0
  7  6  1  0  0  0  0
  7 17  1  0  0  0  0
  8  9  1  0  0  0  0
  8  7  2  0  0  0  0
  9 11  1  0  0  0  0
 10  9  2  0  0  0  0
 11 12  2  0  0  0  0
 11 16  1  0  0  0  0
 12 13  1  0  0  0  0
 13 26  1  0  0  0  0
 13 14  2  0  0  0  0
 14 18  1  0  0  0  0
 15 14  1  0  0  0  0
 15 27  1  0  0  0  0
 16 15  2  0  0  0  0
 17 16  1  0  0  0  0
 19 12  1  0  0  0  0
 20 30  1  0  0  0  0
 20  8  1  0  0  0  0
 21 31  1  0  0  0  0
 22 32  1  0  0  0  0
 23  1  1  0  0  0  0
 24  2  1  0  0  0  0
 28 18  1  0  0  0  0
 29 19  1  0  0  0  0
M  END
>  <Pose>
1

>  <Score>
-3.86

$$$$
