
 OpenBabel10152117223D

 32 34  0  0  0  0  0  0  0  0999 V2000
  -30.3830   19.9360   29.7950 C   0  0  0  0  0  0  0  0  0  0  0  0
  -29.7320   20.8620   30.6160 C   0  0  0  0  0  0  0  0  0  0  0  0
  -28.4590   21.2940   30.2680 C   0  0  0  0  0  0  0  0  0  0  0  0
  -27.8380   20.8030   29.1220 C   0  0  0  0  0  0  0  0  0  0  0  0
  -28.4760   19.8840   28.2990 C   0  0  0  0  0  0  0  0  0  0  0  0
  -29.7670   19.4510   28.6250 C   0  0  0  0  0  0  0  0  0  0  0  0
  -30.4750   18.5060   27.7460 C   0  0  0  0  0  0  0  0  0  0  0  0
  -31.0650   18.8950   26.5970 C   0  0  0  0  0  0  0  0  0  0  0  0
  -31.7990   17.8670   25.8110 C   0  0  0  0  0  0  0  0  0  0  0  0
  -32.3850   18.1190   24.7610 O   0  0  0  0  0  0  0  0  0  0  0  0
  -31.8070   16.4980   26.3390 C   0  0  0  0  0  0  0  0  0  0  0  0
  -32.4770   15.4620   25.6770 C   0  0  0  0  0  0  0  0  0  0  0  0
  -32.4670   14.1700   26.1970 C   0  0  0  0  0  0  0  0  0  0  0  0
  -31.7800   13.9240   27.3820 C   0  0  0  0  0  0  0  0  0  0  0  0
  -31.1100   14.9460   28.0500 C   0  0  0  0  0  0  0  0  0  0  0  0
  -31.1280   16.2390   27.5260 C   0  0  0  0  0  0  0  0  0  0  0  0
  -30.4630   17.2080   28.2310 O   0  0  0  0  0  0  0  0  0  0  0  0
  -31.7400   12.6760   27.9310 O   0  0  0  0  0  0  0  0  0  0  0  0
  -33.1680   15.6470   24.5090 O   0  0  0  0  0  0  0  0  0  0  0  0
  -31.0370   20.1830   26.0930 O   0  0  0  0  0  0  0  0  0  0  0  0
  -26.5850   21.2330   28.7900 O   0  0  0  0  0  0  0  0  0  0  0  0
  -27.7740   22.2060   31.0210 O   0  0  0  0  0  0  0  0  0  0  0  0
  -31.3780   19.5920   30.0720 H   0  0  0  0  0  0  0  0  0  0  0  0
  -30.2290   21.2250   31.5100 H   0  0  0  0  0  0  0  0  0  0  0  0
  -27.9680   19.5190   27.4100 H   0  0  0  0  0  0  0  0  0  0  0  0
  -32.9940   13.3810   25.6700 H   0  0  0  0  0  0  0  0  0  0  0  0
  -30.5810   14.7330   28.9750 H   0  0  0  0  0  0  0  0  0  0  0  0
  -32.0980   12.7190   28.8340 H   0  0  0  0  0  0  0  0  0  0  0  0
  -32.6200   16.2110   23.9150 H   0  0  0  0  0  0  0  0  0  0  0  0
  -31.7700   20.6920   26.4770 H   0  0  0  0  0  0  0  0  0  0  0  0
  -26.1340   21.3700   29.6470 H   0  0  0  0  0  0  0  0  0  0  0  0
  -26.8310   22.1530   30.7840 H   0  0  0  0  0  0  0  0  0  0  0  0
  1 23  1  0  0  0  0
  1  2  1  0  0  0  0
  2 24  1  0  0  0  0
  3  2  2  0  0  0  0
  3 22  1  0  0  0  0
  4  3  1  0  0  0  0
  5  6  1  0  0  0  0
  5  4  2  0  0  0  0
  6  1  2  0  0  0  0
  7 17  1  0  0  0  0
  7  6  1  0  0  0  0
  8  7  2  0  0  0  0
  9 11  1  0  0  0  0
  9  8  1  0  0  0  0
 10  9  2  0  0  0  0
 11 16  1  0  0  0  0
 12 13  1  0  0  0  0
 12 11  2  0  0  0  0
 13 14  2  0  0  0  0
 14 18  1  0  0  0  0
 14 15  1  0  0  0  0
 15 27  1  0  0  0  0
 16 15  2  0  0  0  0
 16 17  1  0  0  0  0
 18 28  1  0  0  0  0
 19 12  1  0  0  0  0
 20 30  1  0  0  0  0
 20  8  1  0  0  0  0
 21  4  1  0  0  0  0
 21 31  1  0  0  0  0
 25  5  1  0  0  0  0
 26 13  1  0  0  0  0
 29 19  1  0  0  0  0
 32 22  1  0  0  0  0
M  END
>  <Pose>
1

>  <Score>
-5.35

$$$$

 OpenBabel10152117223D

 32 34  0  0  0  0  0  0  0  0999 V2000
  -31.5590   17.7920   28.4960 C   0  0  0  0  0  0  0  0  0  0  0  0
  -32.4590   17.7290   27.4270 C   0  0  0  0  0  0  0  0  0  0  0  0
  -32.2020   18.4750   26.2840 C   0  0  0  0  0  0  0  0  0  0  0  0
  -31.0700   19.2830   26.2110 C   0  0  0  0  0  0  0  0  0  0  0  0
  -30.1700   19.3530   27.2670 C   0  0  0  0  0  0  0  0  0  0  0  0
  -30.4040   18.5930   28.4190 C   0  0  0  0  0  0  0  0  0  0  0  0
  -29.4430   18.6240   29.5350 C   0  0  0  0  0  0  0  0  0  0  0  0
  -29.4210   19.6250   30.4380 C   0  0  0  0  0  0  0  0  0  0  0  0
  -28.3750   19.5850   31.4950 C   0  0  0  0  0  0  0  0  0  0  0  0
  -28.2560   20.4550   32.3540 O   0  0  0  0  0  0  0  0  0  0  0  0
  -27.4540   18.4420   31.4840 C   0  0  0  0  0  0  0  0  0  0  0  0
  -26.4300   18.3180   32.4310 C   0  0  0  0  0  0  0  0  0  0  0  0
  -25.5720   17.2210   32.4000 C   0  0  0  0  0  0  0  0  0  0  0  0
  -25.7480   16.2510   31.4180 C   0  0  0  0  0  0  0  0  0  0  0  0
  -26.7620   16.3640   30.4700 C   0  0  0  0  0  0  0  0  0  0  0  0
  -27.6160   17.4670   30.5040 C   0  0  0  0  0  0  0  0  0  0  0  0
  -28.5890   17.5340   29.5400 O   0  0  0  0  0  0  0  0  0  0  0  0
  -24.9340   15.1600   31.3470 O   0  0  0  0  0  0  0  0  0  0  0  0
  -26.2110   19.2410   33.4180 O   0  0  0  0  0  0  0  0  0  0  0  0
  -30.3050   20.6910   30.4570 O   0  0  0  0  0  0  0  0  0  0  0  0
  -30.8280   20.0150   25.0840 O   0  0  0  0  0  0  0  0  0  0  0  0
  -33.0340   18.4470   25.2010 O   0  0  0  0  0  0  0  0  0  0  0  0
  -31.7650   17.2120   29.3940 H   0  0  0  0  0  0  0  0  0  0  0  0
  -33.3400   17.1000   27.5080 H   0  0  0  0  0  0  0  0  0  0  0  0
  -29.2940   19.9910   27.1820 H   0  0  0  0  0  0  0  0  0  0  0  0
  -24.7830   17.1440   33.1420 H   0  0  0  0  0  0  0  0  0  0  0  0
  -26.8830   15.5970   29.7110 H   0  0  0  0  0  0  0  0  0  0  0  0
  -24.1190   15.4060   30.8770 H   0  0  0  0  0  0  0  0  0  0  0  0
  -26.0070   20.1050   32.9900 H   0  0  0  0  0  0  0  0  0  0  0  0
  -29.9470   21.4110   29.9120 H   0  0  0  0  0  0  0  0  0  0  0  0
  -31.3890   19.6040   24.3960 H   0  0  0  0  0  0  0  0  0  0  0  0
  -32.5550   18.0460   24.4550 H   0  0  0  0  0  0  0  0  0  0  0  0
  1 23  1  0  0  0  0
  2 24  1  0  0  0  0
  2  1  2  0  0  0  0
  3  2  1  0  0  0  0
  4  3  2  0  0  0  0
  4  5  1  0  0  0  0
  5  6  2  0  0  0  0
  6  1  1  0  0  0  0
  6  7  1  0  0  0  0
  7 17  1  0  0  0  0
  7  8  2  0  0  0  0
  8 20  1  0  0  0  0
  8  9  1  0  0  0  0
  9 10  2  0  0  0  0
 11  9  1  0  0  0  0
 11 12  1  0  0  0  0
 12 19  1  0  0  0  0
 13 12  2  0  0  0  0
 13 26  1  0  0  0  0
 14 13  1  0  0  0  0
 15 16  1  0  0  0  0
 15 14  2  0  0  0  0
 16 11  2  0  0  0  0
 17 16  1  0  0  0  0
 18 14  1  0  0  0  0
 21  4  1  0  0  0  0
 22  3  1  0  0  0  0
 25  5  1  0  0  0  0
 27 15  1  0  0  0  0
 28 18  1  0  0  0  0
 29 19  1  0  0  0  0
 30 20  1  0  0  0  0
 31 21  1  0  0  0  0
 32 22  1  0  0  0  0
M  END
>  <Pose>
1

>  <Score>
-5.18

$$$$

 OpenBabel10152117223D

 32 34  0  0  0  0  0  0  0  0999 V2000
  -30.2080   20.1280   29.7420 C   0  0  0  0  0  0  0  0  0  0  0  0
  -29.4740   21.1800   30.3000 C   0  0  0  0  0  0  0  0  0  0  0  0
  -28.1890   21.4260   29.8360 C   0  0  0  0  0  0  0  0  0  0  0  0
  -27.6370   20.6280   28.8370 C   0  0  0  0  0  0  0  0  0  0  0  0
  -28.3570   19.5810   28.2760 C   0  0  0  0  0  0  0  0  0  0  0  0
  -29.6620   19.3310   28.7190 C   0  0  0  0  0  0  0  0  0  0  0  0
  -30.4560   18.2500   28.1110 C   0  0  0  0  0  0  0  0  0  0  0  0
  -30.8440   18.2810   26.8200 C   0  0  0  0  0  0  0  0  0  0  0  0
  -31.6880   17.1610   26.3220 C   0  0  0  0  0  0  0  0  0  0  0  0
  -32.1100   17.1020   25.1690 O   0  0  0  0  0  0  0  0  0  0  0  0
  -32.0170   16.0940   27.2730 C   0  0  0  0  0  0  0  0  0  0  0  0
  -32.8120   15.0020   26.9040 C   0  0  0  0  0  0  0  0  0  0  0  0
  -33.1070   14.0010   27.8260 C   0  0  0  0  0  0  0  0  0  0  0  0
  -32.5990   14.1000   29.1180 C   0  0  0  0  0  0  0  0  0  0  0  0
  -31.8080   15.1810   29.4980 C   0  0  0  0  0  0  0  0  0  0  0  0
  -31.5200   16.1830   28.5700 C   0  0  0  0  0  0  0  0  0  0  0  0
  -30.7470   17.2300   29.0020 O   0  0  0  0  0  0  0  0  0  0  0  0
  -32.8590   13.1450   30.0550 O   0  0  0  0  0  0  0  0  0  0  0  0
  -33.3380   14.8540   25.6480 O   0  0  0  0  0  0  0  0  0  0  0  0
  -30.5140   19.2790   25.9200 O   0  0  0  0  0  0  0  0  0  0  0  0
  -26.3710   20.8770   28.3900 O   0  0  0  0  0  0  0  0  0  0  0  0
  -27.4240   22.4450   30.3300 O   0  0  0  0  0  0  0  0  0  0  0  0
  -31.2140   19.9320   30.1110 H   0  0  0  0  0  0  0  0  0  0  0  0
  -29.9200   21.7840   31.0840 H   0  0  0  0  0  0  0  0  0  0  0  0
  -27.9020   18.9760   27.4970 H   0  0  0  0  0  0  0  0  0  0  0  0
  -33.7270   13.1640   27.5200 H   0  0  0  0  0  0  0  0  0  0  0  0
  -31.4210   15.2400   30.5110 H   0  0  0  0  0  0  0  0  0  0  0  0
  -32.3930   13.3760   30.8770 H   0  0  0  0  0  0  0  0  0  0  0  0
  -34.2420   14.4710   25.7390 H   0  0  0  0  0  0  0  0  0  0  0  0
  -31.0650   19.1870   25.1250 H   0  0  0  0  0  0  0  0  0  0  0  0
  -25.9090   21.2700   29.1570 H   0  0  0  0  0  0  0  0  0  0  0  0
  -26.4900   22.2450   30.1470 H   0  0  0  0  0  0  0  0  0  0  0  0
  1 23  1  0  0  0  0
  1  2  1  0  0  0  0
  2 24  1  0  0  0  0
  3  2  2  0  0  0  0
  3 22  1  0  0  0  0
  4  3  1  0  0  0  0
  5  6  1  0  0  0  0
  5  4  2  0  0  0  0
  6  1  2  0  0  0  0
  7  6  1  0  0  0  0
  7 17  1  0  0  0  0
  8  7  2  0  0  0  0
  9  8  1  0  0  0  0
  9 11  1  0  0  0  0
 10  9  2  0  0  0  0
 11 16  1  0  0  0  0
 12 11  2  0  0  0  0
 12 13  1  0  0  0  0
 13 14  2  0  0  0  0
 14 15  1  0  0  0  0
 14 18  1  0  0  0  0
 15 27  1  0  0  0  0
 16 17  1  0  0  0  0
 16 15  2  0  0  0  0
 18 28  1  0  0  0  0
 19 29  1  0  0  0  0
 19 12  1  0  0  0  0
 20  8  1  0  0  0  0
 21  4  1  0  0  0  0
 21 31  1  0  0  0  0
 25  5  1  0  0  0  0
 26 13  1  0  0  0  0
 30 20  1  0  0  0  0
 32 22  1  0  0  0  0
M  END
>  <Pose>
2

>  <Score>
-5.04

$$$$

 OpenBabel10152117223D

 32 34  0  0  0  0  0  0  0  0999 V2000
  -31.6920   18.4280   28.6660 C   0  0  0  0  0  0  0  0  0  0  0  0
  -32.2530   17.7270   27.5940 C   0  0  0  0  0  0  0  0  0  0  0  0
  -32.0380   18.1860   26.3010 C   0  0  0  0  0  0  0  0  0  0  0  0
  -31.2820   19.3350   26.0800 C   0  0  0  0  0  0  0  0  0  0  0  0
  -30.7200   20.0380   27.1370 C   0  0  0  0  0  0  0  0  0  0  0  0
  -30.9120   19.5790   28.4460 C   0  0  0  0  0  0  0  0  0  0  0  0
  -30.2940   20.2890   29.5780 C   0  0  0  0  0  0  0  0  0  0  0  0
  -28.9980   20.1210   29.9120 C   0  0  0  0  0  0  0  0  0  0  0  0
  -28.4880   20.8480   31.1060 C   0  0  0  0  0  0  0  0  0  0  0  0
  -27.3300   20.7510   31.5060 O   0  0  0  0  0  0  0  0  0  0  0  0
  -29.4360   21.7120   31.8200 C   0  0  0  0  0  0  0  0  0  0  0  0
  -29.0550   22.4300   32.9600 C   0  0  0  0  0  0  0  0  0  0  0  0
  -29.9730   23.2450   33.6180 C   0  0  0  0  0  0  0  0  0  0  0  0
  -31.2710   23.3380   33.1250 C   0  0  0  0  0  0  0  0  0  0  0  0
  -31.6610   22.6280   31.9920 C   0  0  0  0  0  0  0  0  0  0  0  0
  -30.7380   21.8090   31.3410 C   0  0  0  0  0  0  0  0  0  0  0  0
  -31.1800   21.1240   30.2390 O   0  0  0  0  0  0  0  0  0  0  0  0
  -32.2050   24.1230   33.7330 O   0  0  0  0  0  0  0  0  0  0  0  0
  -27.7930   22.3770   33.4890 O   0  0  0  0  0  0  0  0  0  0  0  0
  -28.1030   19.3210   29.2230 O   0  0  0  0  0  0  0  0  0  0  0  0
  -31.0780   19.7790   24.8040 O   0  0  0  0  0  0  0  0  0  0  0  0
  -32.5470   17.5400   25.2100 O   0  0  0  0  0  0  0  0  0  0  0  0
  -31.8680   18.0710   29.6800 H   0  0  0  0  0  0  0  0  0  0  0  0
  -32.8470   16.8390   27.7890 H   0  0  0  0  0  0  0  0  0  0  0  0
  -30.1340   20.9310   26.9350 H   0  0  0  0  0  0  0  0  0  0  0  0
  -29.6590   23.7930   34.5010 H   0  0  0  0  0  0  0  0  0  0  0  0
  -32.6800   22.7130   31.6230 H   0  0  0  0  0  0  0  0  0  0  0  0
  -33.0060   24.1430   33.1820 H   0  0  0  0  0  0  0  0  0  0  0  0
  -27.1480   22.4330   32.7460 H   0  0  0  0  0  0  0  0  0  0  0  0
  -27.2080   19.4710   29.5700 H   0  0  0  0  0  0  0  0  0  0  0  0
  -31.8130   19.3930   24.2860 H   0  0  0  0  0  0  0  0  0  0  0  0
  -32.3180   18.0520   24.4150 H   0  0  0  0  0  0  0  0  0  0  0  0
  1 23  1  0  0  0  0
  2 24  1  0  0  0  0
  2  1  2  0  0  0  0
  3  2  1  0  0  0  0
  4  3  2  0  0  0  0
  4  5  1  0  0  0  0
  5  6  2  0  0  0  0
  6  1  1  0  0  0  0
  6  7  1  0  0  0  0
  7  8  2  0  0  0  0
  7 17  1  0  0  0  0
  8  9  1  0  0  0  0
  9 10  2  0  0  0  0
  9 11  1  0  0  0  0
 11 12  1  0  0  0  0
 12 19  1  0  0  0  0
 12 13  2  0  0  0  0
 13 26  1  0  0  0  0
 14 13  1  0  0  0  0
 14 18  1  0  0  0  0
 15 14  2  0  0  0  0
 16 11  2  0  0  0  0
 16 15  1  0  0  0  0
 17 16  1  0  0  0  0
 20 30  1  0  0  0  0
 20  8  1  0  0  0  0
 21  4  1  0  0  0  0
 22  3  1  0  0  0  0
 25  5  1  0  0  0  0
 27 15  1  0  0  0  0
 28 18  1  0  0  0  0
 29 19  1  0  0  0  0
 31 21  1  0  0  0  0
 32 22  1  0  0  0  0
M  END
>  <Pose>
1

>  <Score>
-5.02

$$$$
