
 OpenBabel10152116493D

 33 34  0  0  1  0  0  0  0  0999 V2000
    0.1350    6.3740   11.3650 C   0  0  0  0  0  0  0  0  0  0  0  0
    0.3390    7.4320   10.2800 C   0  0  2  0  0  0  0  0  0  0  0  0
    0.4130    6.8080    8.8690 C   0  0  0  0  0  0  0  0  0  0  0  0
    0.4580    7.7070    7.7280 N   0  0  0  0  0  0  0  0  0  0  0  0
    0.7330    9.0490    7.6930 C   0  0  0  0  0  0  0  0  0  0  0  0
    0.6410    9.5520    6.4800 N   0  0  0  0  0  0  0  0  0  0  0  0
    0.2470    8.4930    5.6950 C   0  0  0  0  0  0  0  0  0  0  0  0
   -0.0490    8.3940    4.3270 C   0  0  1  0  0  0  0  0  0  0  0  0
   -0.4310    7.1940    3.8350 N   0  0  0  0  0  0  0  0  0  0  0  0
   -0.5060    6.1480    4.6890 C   0  0  0  0  0  0  0  0  0  0  0  0
   -0.2410    6.1190    6.0120 N   0  0  0  0  0  0  0  0  0  0  0  0
    0.1290    7.3350    6.4480 C   0  0  0  0  0  0  0  0  0  0  0  0
    0.0280    9.4690    3.4710 N   0  0  0  0  0  0  0  0  0  0  0  0
    1.5270    8.1970   10.4620 O   0  0  0  0  0  0  0  0  0  0  0  0
    1.3850    9.4880   11.0630 C   0  0  0  0  0  0  0  0  0  0  0  0
    2.6220    9.8230   12.4580 P   0  0  1  0  0  0  0  0  0  0  0  0
    3.2240    8.4950   12.5430 O   0  0  0  0  0  0  0  0  0  0  0  0
    3.8570   10.5880   11.5630 N   0  0  0  0  0  0  0  0  0  0  0  0
    4.8310   11.3780   12.3190 C   0  0  0  0  0  0  0  0  0  0  0  0
   -0.0720    6.8470   12.3300 H   0  0  0  0  0  0  0  0  0  0  0  0
    1.0230    5.7530   11.5090 H   0  0  0  0  0  0  0  0  0  0  0  0
   -0.7130    5.7240   11.1270 H   0  0  0  0  0  0  0  0  0  0  0  0
   -0.5220    8.1120   10.2950 H   0  0  0  0  0  0  0  0  0  0  0  0
    1.2880    6.1520    8.7950 H   0  0  0  0  0  0  0  0  0  0  0  0
   -0.4850    6.1960    8.7150 H   0  0  0  0  0  0  0  0  0  0  0  0
    0.9890    9.6310    8.5660 H   0  0  0  0  0  0  0  0  0  0  0  0
   -0.8240    5.2070    4.2490 H   0  0  0  0  0  0  0  0  0  0  0  0
   -0.2420   10.3810    3.8110 H   0  0  0  0  0  0  0  0  0  0  0  0
    0.3120    9.3070    2.5190 H   0  0  0  0  0  0  0  0  0  0  0  0
    0.3860    9.5480   11.5080 H   0  0  0  0  0  0  0  0  0  0  0  0
    1.4780   10.2690   10.2990 H   0  0  0  0  0  0  0  0  0  0  0  0
    3.4360   11.1740   10.8460 H   0  0  0  0  0  0  0  0  0  0  0  0
    5.5370   11.9140   12.9140 H   0  0  0  0  0  0  0  0  0  0  0  0
  1 21  1  0  0  0  0
  1 20  1  0  0  0  0
  2 23  1  1  0  0  0
  2 14  1  0  0  0  0
  2  1  1  0  0  0  0
  3  2  1  0  0  0  0
  4  3  1  0  0  0  0
  5  4  1  0  0  0  0
  5 26  1  0  0  0  0
  6  5  2  0  0  0  0
  7 12  2  0  0  0  0
  7  6  1  0  0  0  0
  8 13  1  1  0  0  0
  8  7  1  0  0  0  0
  9  8  1  0  0  0  0
  9 10  2  0  0  0  0
 10 11  1  0  0  0  0
 11 12  1  0  0  0  0
 12  4  1  0  0  0  0
 13 28  1  0  0  0  0
 14 15  1  0  0  0  0
 15 30  1  0  0  0  0
 15 16  1  0  0  0  0
 16 17  1  6  0  0  0
 18 19  1  0  0  0  0
 18 16  1  0  0  0  0
 19 33  1  0  0  0  0
 22  1  1  0  0  0  0
 24  3  1  0  0  0  0
 25  3  1  0  0  0  0
 27 10  1  0  0  0  0
 29 13  1  0  0  0  0
 31 15  1  0  0  0  0
 32 18  1  0  0  0  0
M  END
>  <Pose>
1

>  <Score>
-7.51

$$$$

 OpenBabel10152116493D

 33 34  0  0  1  0  0  0  0  0999 V2000
    2.2600    9.5590   15.1360 C   0  0  0  0  0  0  0  0  0  0  0  0
    2.9910    9.3740   13.8060 C   0  0  2  0  0  0  0  0  0  0  0  0
    2.6980    7.9980   13.1700 C   0  0  0  0  0  0  0  0  0  0  0  0
    1.9090    7.9640   11.9500 N   0  0  0  0  0  0  0  0  0  0  0  0
    1.9710    7.0840   10.9020 C   0  0  0  0  0  0  0  0  0  0  0  0
    1.1300    7.3860    9.9370 N   0  0  0  0  0  0  0  0  0  0  0  0
    0.5180    8.5430   10.3610 C   0  0  0  0  0  0  0  0  0  0  0  0
   -0.4470    9.3710    9.7670 C   0  0  1  0  0  0  0  0  0  0  0  0
   -0.8530   10.4720   10.4360 N   0  0  0  0  0  0  0  0  0  0  0  0
   -0.3080   10.7200   11.6480 C   0  0  0  0  0  0  0  0  0  0  0  0
    0.6150    9.9990   12.3210 N   0  0  0  0  0  0  0  0  0  0  0  0
    0.9840    8.9210   11.6110 C   0  0  0  0  0  0  0  0  0  0  0  0
   -0.9900    9.1080    8.5290 N   0  0  0  0  0  0  0  0  0  0  0  0
    4.4060    9.4870   13.9260 O   0  0  0  0  0  0  0  0  0  0  0  0
    4.9620   10.8040   13.8700 C   0  0  0  0  0  0  0  0  0  0  0  0
    5.9320   11.2910   15.4240 P   0  0  1  0  0  0  0  0  0  0  0  0
    7.0010   10.2990   15.3370 O   0  0  0  0  0  0  0  0  0  0  0  0
    6.7960   12.6280   14.8100 N   0  0  0  0  0  0  0  0  0  0  0  0
    6.9090   12.7330   13.3540 C   0  0  0  0  0  0  0  0  0  0  0  0
    2.3550   10.5920   15.4880 H   0  0  0  0  0  0  0  0  0  0  0  0
    2.6720    8.9250   15.9250 H   0  0  0  0  0  0  0  0  0  0  0  0
    1.1920    9.3420   15.0330 H   0  0  0  0  0  0  0  0  0  0  0  0
    2.6360   10.1430   13.1070 H   0  0  0  0  0  0  0  0  0  0  0  0
    3.6380    7.4750   12.9580 H   0  0  0  0  0  0  0  0  0  0  0  0
    2.1310    7.3970   13.8930 H   0  0  0  0  0  0  0  0  0  0  0  0
    2.6450    6.2400   10.8690 H   0  0  0  0  0  0  0  0  0  0  0  0
   -0.6600   11.6200   12.1440 H   0  0  0  0  0  0  0  0  0  0  0  0
   -1.9640    8.8490    8.4710 H   0  0  0  0  0  0  0  0  0  0  0  0
   -0.3880    9.1400    7.7230 H   0  0  0  0  0  0  0  0  0  0  0  0
    4.1370   11.5180   13.7800 H   0  0  0  0  0  0  0  0  0  0  0  0
    5.6110   10.9000   12.9920 H   0  0  0  0  0  0  0  0  0  0  0  0
    7.7280   12.6410   15.2190 H   0  0  0  0  0  0  0  0  0  0  0  0
    6.9380   12.7860   12.2890 H   0  0  0  0  0  0  0  0  0  0  0  0
  1 20  1  0  0  0  0
  1 21  1  0  0  0  0
  2 23  1  6  0  0  0
  2 14  1  0  0  0  0
  2  1  1  0  0  0  0
  3  2  1  0  0  0  0
  3 25  1  0  0  0  0
  4  3  1  0  0  0  0
  5  4  1  0  0  0  0
  6  7  1  0  0  0  0
  6  5  2  0  0  0  0
  7 12  2  0  0  0  0
  8 13  1  6  0  0  0
  8  7  1  0  0  0  0
  8  9  1  0  0  0  0
  9 10  2  0  0  0  0
 10 27  1  0  0  0  0
 10 11  1  0  0  0  0
 12  4  1  0  0  0  0
 12 11  1  0  0  0  0
 15 14  1  0  0  0  0
 15 16  1  0  0  0  0
 16 17  1  6  0  0  0
 18 32  1  0  0  0  0
 18 16  1  0  0  0  0
 19 18  1  0  0  0  0
 22  1  1  0  0  0  0
 24  3  1  0  0  0  0
 26  5  1  0  0  0  0
 28 13  1  0  0  0  0
 29 13  1  0  0  0  0
 30 15  1  0  0  0  0
 31 15  1  0  0  0  0
 33 19  1  0  0  0  0
M  END
>  <Pose>
1

>  <Score>
-7.38

$$$$

 OpenBabel10152116493D

 33 34  0  0  1  0  0  0  0  0999 V2000
    0.9710   10.4430   12.3880 C   0  0  0  0  0  0  0  0  0  0  0  0
    1.7640    9.1400   12.2790 C   0  0  2  0  0  0  0  0  0  0  0  0
    2.9660    9.1100   13.2480 C   0  0  0  0  0  0  0  0  0  0  0  0
    3.9450   10.1800   13.1540 N   0  0  0  0  0  0  0  0  0  0  0  0
    4.3400   10.8970   12.0560 C   0  0  0  0  0  0  0  0  0  0  0  0
    5.2890   11.7660   12.3350 N   0  0  0  0  0  0  0  0  0  0  0  0
    5.5500   11.5750   13.6730 C   0  0  0  0  0  0  0  0  0  0  0  0
    6.4730   12.1710   14.5460 C   0  0  1  0  0  0  0  0  0  0  0  0
    6.5050   11.7560   15.8320 N   0  0  0  0  0  0  0  0  0  0  0  0
    5.6430   10.7860   16.2110 C   0  0  0  0  0  0  0  0  0  0  0  0
    4.7120   10.1480   15.4700 N   0  0  0  0  0  0  0  0  0  0  0  0
    4.7260   10.5950   14.2040 C   0  0  0  0  0  0  0  0  0  0  0  0
    7.3480   13.1550   14.1440 N   0  0  0  0  0  0  0  0  0  0  0  0
    2.2750    8.9060   10.9700 O   0  0  0  0  0  0  0  0  0  0  0  0
    1.4110    8.2440   10.0410 C   0  0  0  0  0  0  0  0  0  0  0  0
   -0.1300    9.2460    9.5830 P   0  0  1  0  0  0  0  0  0  0  0  0
    0.1830    9.5060    8.1800 O   0  0  0  0  0  0  0  0  0  0  0  0
   -1.2380    7.9690    9.3490 N   0  0  0  0  0  0  0  0  0  0  0  0
   -0.9290    7.0100    8.2870 C   0  0  0  0  0  0  0  0  0  0  0  0
    0.0420   10.3780   11.8130 H   0  0  0  0  0  0  0  0  0  0  0  0
    1.5230   11.2970   11.9880 H   0  0  0  0  0  0  0  0  0  0  0  0
    0.7020   10.6550   13.4280 H   0  0  0  0  0  0  0  0  0  0  0  0
    1.1010    8.3090   12.5500 H   0  0  0  0  0  0  0  0  0  0  0  0
    2.6110    9.0900   14.2850 H   0  0  0  0  0  0  0  0  0  0  0  0
    3.5320    8.1870   13.0650 H   0  0  0  0  0  0  0  0  0  0  0  0
    3.9250   10.7590   11.0690 H   0  0  0  0  0  0  0  0  0  0  0  0
    5.7100   10.4810   17.2520 H   0  0  0  0  0  0  0  0  0  0  0  0
    8.3350   13.0230   14.3090 H   0  0  0  0  0  0  0  0  0  0  0  0
    6.9730   13.9940   13.7340 H   0  0  0  0  0  0  0  0  0  0  0  0
    1.0570    7.3190   10.5060 H   0  0  0  0  0  0  0  0  0  0  0  0
    1.9650    7.9920    9.1290 H   0  0  0  0  0  0  0  0  0  0  0  0
   -2.1650    8.3550    9.1910 H   0  0  0  0  0  0  0  0  0  0  0  0
   -0.6470    6.3180    7.5250 H   0  0  0  0  0  0  0  0  0  0  0  0
  1 22  1  0  0  0  0
  2  1  1  0  0  0  0
  2 23  1  1  0  0  0
  2  3  1  0  0  0  0
  3 24  1  0  0  0  0
  4  3  1  0  0  0  0
  4 12  1  0  0  0  0
  5  6  2  0  0  0  0
  5  4  1  0  0  0  0
  6  7  1  0  0  0  0
  7 12  2  0  0  0  0
  7  8  1  0  0  0  0
  8 13  1  6  0  0  0
  8  9  1  0  0  0  0
  9 10  2  0  0  0  0
 10 27  1  0  0  0  0
 11 10  1  0  0  0  0
 12 11  1  0  0  0  0
 13 28  1  0  0  0  0
 14  2  1  0  0  0  0
 15 30  1  0  0  0  0
 15 14  1  0  0  0  0
 16 17  1  6  0  0  0
 16 15  1  0  0  0  0
 18 16  1  0  0  0  0
 19 18  1  0  0  0  0
 20  1  1  0  0  0  0
 21  1  1  0  0  0  0
 25  3  1  0  0  0  0
 26  5  1  0  0  0  0
 29 13  1  0  0  0  0
 31 15  1  0  0  0  0
 32 18  1  0  0  0  0
 33 19  1  0  0  0  0
M  END
>  <Pose>
3

>  <Score>
-7.35

$$$$

 OpenBabel10152116493D

 33 34  0  0  1  0  0  0  0  0999 V2000
    0.0160   10.1490   10.8040 C   0  0  0  0  0  0  0  0  0  0  0  0
    0.8110    9.1540    9.9590 C   0  0  2  0  0  0  0  0  0  0  0  0
   -0.1100    8.1970    9.1700 C   0  0  0  0  0  0  0  0  0  0  0  0
    0.1800    7.9770    7.7630 N   0  0  0  0  0  0  0  0  0  0  0  0
    1.3570    7.6050    7.1700 C   0  0  0  0  0  0  0  0  0  0  0  0
    1.2650    7.5430    5.8580 N   0  0  0  0  0  0  0  0  0  0  0  0
   -0.0270    7.9330    5.5840 C   0  0  0  0  0  0  0  0  0  0  0  0
   -0.7230    8.1000    4.3780 C   0  0  1  0  0  0  0  0  0  0  0  0
   -2.0090    8.5160    4.4270 N   0  0  0  0  0  0  0  0  0  0  0  0
   -2.5580    8.7490    5.6410 C   0  0  0  0  0  0  0  0  0  0  0  0
   -1.9950    8.6160    6.8610 N   0  0  0  0  0  0  0  0  0  0  0  0
   -0.7210    8.2050    6.7530 C   0  0  0  0  0  0  0  0  0  0  0  0
   -0.1490    7.8630    3.1490 N   0  0  0  0  0  0  0  0  0  0  0  0
    1.6920    8.3440   10.7320 O   0  0  0  0  0  0  0  0  0  0  0  0
    2.9610    8.9080   11.0780 C   0  0  0  0  0  0  0  0  0  0  0  0
    2.8540   10.3130   12.3440 P   0  0  1  0  0  0  0  0  0  0  0  0
    3.5120    9.6500   13.4670 O   0  0  0  0  0  0  0  0  0  0  0  0
    4.1710   11.2650   11.8230 N   0  0  0  0  0  0  0  0  0  0  0  0
    5.0740   11.7700   12.8580 C   0  0  0  0  0  0  0  0  0  0  0  0
    0.6780   10.9120   11.2260 H   0  0  0  0  0  0  0  0  0  0  0  0
   -0.4810    9.6690   11.6500 H   0  0  0  0  0  0  0  0  0  0  0  0
   -0.7390   10.6640   10.2010 H   0  0  0  0  0  0  0  0  0  0  0  0
    1.4040    9.7180    9.2280 H   0  0  0  0  0  0  0  0  0  0  0  0
   -0.1280    7.2120    9.6520 H   0  0  0  0  0  0  0  0  0  0  0  0
   -1.1300    8.6040    9.1920 H   0  0  0  0  0  0  0  0  0  0  0  0
    2.2640    7.3950    7.7180 H   0  0  0  0  0  0  0  0  0  0  0  0
   -3.5900    9.0880    5.6300 H   0  0  0  0  0  0  0  0  0  0  0  0
   -0.1670    8.5970    2.4560 H   0  0  0  0  0  0  0  0  0  0  0  0
    0.2360    6.9520    2.9660 H   0  0  0  0  0  0  0  0  0  0  0  0
    3.4010    9.3360   10.1720 H   0  0  0  0  0  0  0  0  0  0  0  0
    3.6270    8.1250   11.4590 H   0  0  0  0  0  0  0  0  0  0  0  0
    3.8220   12.0460   11.2730 H   0  0  0  0  0  0  0  0  0  0  0  0
    5.7240   12.0890   13.6420 H   0  0  0  0  0  0  0  0  0  0  0  0
  1 20  1  0  0  0  0
  1 21  1  0  0  0  0
  2 23  1  6  0  0  0
  2 14  1  0  0  0  0
  2  1  1  0  0  0  0
  3 25  1  0  0  0  0
  3 24  1  0  0  0  0
  3  2  1  0  0  0  0
  4  3  1  0  0  0  0
  5 26  1  0  0  0  0
  5  4  1  0  0  0  0
  6  5  2  0  0  0  0
  7  6  1  0  0  0  0
  7 12  2  0  0  0  0
  8 13  1  6  0  0  0
  8  9  1  0  0  0  0
  8  7  1  0  0  0  0
  9 10  2  0  0  0  0
 10 11  1  0  0  0  0
 12 11  1  0  0  0  0
 12  4  1  0  0  0  0
 14 15  1  0  0  0  0
 15 31  1  0  0  0  0
 15 16  1  0  0  0  0
 16 17  1  1  0  0  0
 18 16  1  0  0  0  0
 18 19  1  0  0  0  0
 19 33  1  0  0  0  0
 22  1  1  0  0  0  0
 27 10  1  0  0  0  0
 28 13  1  0  0  0  0
 29 13  1  0  0  0  0
 30 15  1  0  0  0  0
 32 18  1  0  0  0  0
M  END
>  <Pose>
1

>  <Score>
-7.34

$$$$

 OpenBabel10152116493D

 33 34  0  0  1  0  0  0  0  0999 V2000
    2.4340    7.3810   12.1900 C   0  0  0  0  0  0  0  0  0  0  0  0
    2.9940    8.6580   11.5650 C   0  0  2  0  0  0  0  0  0  0  0  0
    2.7490    9.8960   12.4550 C   0  0  0  0  0  0  0  0  0  0  0  0
    3.8460   10.8310   12.6400 N   0  0  0  0  0  0  0  0  0  0  0  0
    4.4380   11.6630   11.7270 C   0  0  0  0  0  0  0  0  0  0  0  0
    5.4400   12.3440   12.2390 N   0  0  0  0  0  0  0  0  0  0  0  0
    5.5290   11.9030   13.5400 C   0  0  0  0  0  0  0  0  0  0  0  0
    6.4090   12.2230   14.5850 C   0  0  1  0  0  0  0  0  0  0  0  0
    6.2520   11.6020   15.7750 N   0  0  0  0  0  0  0  0  0  0  0  0
    5.2500   10.7020   15.8970 C   0  0  0  0  0  0  0  0  0  0  0  0
    4.3420   10.3200   14.9740 N   0  0  0  0  0  0  0  0  0  0  0  0
    4.5470   10.9640   13.8130 C   0  0  0  0  0  0  0  0  0  0  0  0
    7.4280   13.1390   14.4430 N   0  0  0  0  0  0  0  0  0  0  0  0
    2.4360    8.9450   10.2860 O   0  0  0  0  0  0  0  0  0  0  0  0
    1.4960    8.0040    9.7580 C   0  0  0  0  0  0  0  0  0  0  0  0
    0.6460    8.5820    8.1660 P   0  0  1  0  0  0  0  0  0  0  0  0
    1.0830    9.9760    8.1760 O   0  0  0  0  0  0  0  0  0  0  0  0
    1.7620    7.9890    7.0190 N   0  0  0  0  0  0  0  0  0  0  0  0
    1.2300    7.6160    5.7080 C   0  0  0  0  0  0  0  0  0  0  0  0
    2.7550    6.5000   11.6240 H   0  0  0  0  0  0  0  0  0  0  0  0
    1.3410    7.3660   12.1900 H   0  0  0  0  0  0  0  0  0  0  0  0
    2.7860    7.2580   13.2200 H   0  0  0  0  0  0  0  0  0  0  0  0
    4.0800    8.5410   11.4550 H   0  0  0  0  0  0  0  0  0  0  0  0
    1.8980   10.4710   12.0700 H   0  0  0  0  0  0  0  0  0  0  0  0
    2.4950    9.5490   13.4650 H   0  0  0  0  0  0  0  0  0  0  0  0
    4.1220   11.7430   10.6970 H   0  0  0  0  0  0  0  0  0  0  0  0
    5.1680   10.2240   16.8690 H   0  0  0  0  0  0  0  0  0  0  0  0
    8.3360   12.8120   14.1460 H   0  0  0  0  0  0  0  0  0  0  0  0
    7.2470   14.1000   14.6800 H   0  0  0  0  0  0  0  0  0  0  0  0
    0.7040    7.8610   10.5020 H   0  0  0  0  0  0  0  0  0  0  0  0
    1.9890    7.0420    9.5790 H   0  0  0  0  0  0  0  0  0  0  0  0
    2.2590    7.1950    7.4160 H   0  0  0  0  0  0  0  0  0  0  0  0
    0.8030    7.3890    4.7570 H   0  0  0  0  0  0  0  0  0  0  0  0
  1 21  1  0  0  0  0
  1 22  1  0  0  0  0
  2 23  1  6  0  0  0
  2  1  1  0  0  0  0
  2  3  1  0  0  0  0
  3  4  1  0  0  0  0
  3 25  1  0  0  0  0
  4 12  1  0  0  0  0
  5  6  2  0  0  0  0
  5  4  1  0  0  0  0
  6  7  1  0  0  0  0
  7 12  2  0  0  0  0
  7  8  1  0  0  0  0
  8 13  1  6  0  0  0
  8  9  1  0  0  0  0
  9 10  2  0  0  0  0
 10 27  1  0  0  0  0
 11 10  1  0  0  0  0
 12 11  1  0  0  0  0
 13 29  1  0  0  0  0
 14  2  1  0  0  0  0
 15 14  1  0  0  0  0
 15 30  1  0  0  0  0
 16 17  1  1  0  0  0
 16 15  1  0  0  0  0
 18 32  1  0  0  0  0
 18 16  1  0  0  0  0
 19 18  1  0  0  0  0
 20  1  1  0  0  0  0
 24  3  1  0  0  0  0
 26  5  1  0  0  0  0
 28 13  1  0  0  0  0
 31 15  1  0  0  0  0
 33 19  1  0  0  0  0
M  END
>  <Pose>
2

>  <Score>
-7.22

$$$$

 OpenBabel10152116493D

 33 34  0  0  1  0  0  0  0  0999 V2000
   -0.2290    3.8530    8.3390 C   0  0  0  0  0  0  0  0  0  0  0  0
   -0.3820    5.3330    8.6910 C   0  0  2  0  0  0  0  0  0  0  0  0
    0.8950    6.1400    8.3740 C   0  0  0  0  0  0  0  0  0  0  0  0
    0.7970    7.2210    7.4070 N   0  0  0  0  0  0  0  0  0  0  0  0
    0.9800    8.5660    7.5900 C   0  0  0  0  0  0  0  0  0  0  0  0
    0.7650    9.2590    6.4920 N   0  0  0  0  0  0  0  0  0  0  0  0
    0.3840    8.3210    5.5600 C   0  0  0  0  0  0  0  0  0  0  0  0
   -0.0050    8.4330    4.2160 C   0  0  1  0  0  0  0  0  0  0  0  0
   -0.3420    7.3090    3.5460 N   0  0  0  0  0  0  0  0  0  0  0  0
   -0.2860    6.1300    4.2070 C   0  0  0  0  0  0  0  0  0  0  0  0
    0.0780    5.8980    5.4870 N   0  0  0  0  0  0  0  0  0  0  0  0
    0.3990    7.0460    6.1040 C   0  0  0  0  0  0  0  0  0  0  0  0
   -0.0620    9.6410    3.5580 N   0  0  0  0  0  0  0  0  0  0  0  0
   -0.6840    5.5500   10.0670 O   0  0  0  0  0  0  0  0  0  0  0  0
   -1.0960    6.8680   10.4430 C   0  0  0  0  0  0  0  0  0  0  0  0
    0.3360    8.0040   10.9410 P   0  0  1  0  0  0  0  0  0  0  0  0
   -0.2600    9.2860   10.5710 O   0  0  0  0  0  0  0  0  0  0  0  0
    0.0590    8.0880   12.6230 N   0  0  0  0  0  0  0  0  0  0  0  0
    1.2360    8.0360   13.4910 C   0  0  0  0  0  0  0  0  0  0  0  0
   -1.1890    3.3350    8.4230 H   0  0  0  0  0  0  0  0  0  0  0  0
    0.4610    3.3370    9.0120 H   0  0  0  0  0  0  0  0  0  0  0  0
    0.1260    3.7270    7.3110 H   0  0  0  0  0  0  0  0  0  0  0  0
   -1.1950    5.7500    8.0840 H   0  0  0  0  0  0  0  0  0  0  0  0
    1.3050    6.5710    9.2960 H   0  0  0  0  0  0  0  0  0  0  0  0
    1.6440    5.4530    7.9590 H   0  0  0  0  0  0  0  0  0  0  0  0
    1.2610    9.0090    8.5340 H   0  0  0  0  0  0  0  0  0  0  0  0
   -0.5730    5.2560    3.6300 H   0  0  0  0  0  0  0  0  0  0  0  0
   -0.4250   10.4450    4.0500 H   0  0  0  0  0  0  0  0  0  0  0  0
    0.2200    9.6760    2.5930 H   0  0  0  0  0  0  0  0  0  0  0  0
   -1.7480    6.7830   11.3200 H   0  0  0  0  0  0  0  0  0  0  0  0
   -1.6620    7.3320    9.6270 H   0  0  0  0  0  0  0  0  0  0  0  0
   -0.5880    7.3510   12.8920 H   0  0  0  0  0  0  0  0  0  0  0  0
    2.1240    8.0280   14.0830 H   0  0  0  0  0  0  0  0  0  0  0  0
  1 20  1  0  0  0  0
  1  2  1  0  0  0  0
  1 21  1  0  0  0  0
  2 23  1  6  0  0  0
  2 14  1  0  0  0  0
  3  2  1  0  0  0  0
  3 24  1  0  0  0  0
  4  5  1  0  0  0  0
  4  3  1  0  0  0  0
  5 26  1  0  0  0  0
  6  5  2  0  0  0  0
  7 12  2  0  0  0  0
  7  6  1  0  0  0  0
  8 13  1  1  0  0  0
  8  7  1  0  0  0  0
  9 10  2  0  0  0  0
  9  8  1  0  0  0  0
 10 11  1  0  0  0  0
 11 12  1  0  0  0  0
 12  4  1  0  0  0  0
 13 28  1  0  0  0  0
 14 15  1  0  0  0  0
 15 16  1  0  0  0  0
 15 30  1  0  0  0  0
 16 17  1  6  0  0  0
 16 18  1  0  0  0  0
 18 32  1  0  0  0  0
 18 19  1  0  0  0  0
 19 33  1  0  0  0  0
 22  1  1  0  0  0  0
 25  3  1  0  0  0  0
 27 10  1  0  0  0  0
 29 13  1  0  0  0  0
 31 15  1  0  0  0  0
M  END
>  <Pose>
1

>  <Score>
-7.11

$$$$

 OpenBabel10152116493D

 33 34  0  0  1  0  0  0  0  0999 V2000
    0.6950    8.0770   11.8950 C   0  0  0  0  0  0  0  0  0  0  0  0
    1.8420    9.0500   11.6220 C   0  0  2  0  0  0  0  0  0  0  0  0
    2.7880    9.1870   12.8340 C   0  0  0  0  0  0  0  0  0  0  0  0
    3.7740   10.2550   12.8130 N   0  0  0  0  0  0  0  0  0  0  0  0
    4.1480   11.0670   11.7760 C   0  0  0  0  0  0  0  0  0  0  0  0
    5.1100   11.9010   12.1080 N   0  0  0  0  0  0  0  0  0  0  0  0
    5.4030   11.5870   13.4160 C   0  0  0  0  0  0  0  0  0  0  0  0
    6.3510   12.0960   14.3170 C   0  0  1  0  0  0  0  0  0  0  0  0
    6.4110   11.5660   15.5580 N   0  0  0  0  0  0  0  0  0  0  0  0
    5.5500   10.5710   15.8700 C   0  0  0  0  0  0  0  0  0  0  0  0
    4.5960   10.0080   15.0970 N   0  0  0  0  0  0  0  0  0  0  0  0
    4.5830   10.5690   13.8770 C   0  0  0  0  0  0  0  0  0  0  0  0
    7.2240   13.1070   13.9830 N   0  0  0  0  0  0  0  0  0  0  0  0
    1.3940   10.3620   11.2900 O   0  0  0  0  0  0  0  0  0  0  0  0
    0.8270   10.5480    9.9900 C   0  0  0  0  0  0  0  0  0  0  0  0
    0.6270    8.9410    9.0060 P   0  0  1  0  0  0  0  0  0  0  0  0
   -0.8150    8.9970    8.7820 O   0  0  0  0  0  0  0  0  0  0  0  0
    1.1300    9.4870    7.4690 N   0  0  0  0  0  0  0  0  0  0  0  0
    1.2730    8.4750    6.4210 C   0  0  0  0  0  0  0  0  0  0  0  0
    0.1320    7.8760   10.9780 H   0  0  0  0  0  0  0  0  0  0  0  0
   -0.0230    8.4770   12.6170 H   0  0  0  0  0  0  0  0  0  0  0  0
    1.0700    7.1190   12.2690 H   0  0  0  0  0  0  0  0  0  0  0  0
    2.4330    8.6590   10.7840 H   0  0  0  0  0  0  0  0  0  0  0  0
    2.2040    9.3080   13.7550 H   0  0  0  0  0  0  0  0  0  0  0  0
    3.3720    8.2610   12.9230 H   0  0  0  0  0  0  0  0  0  0  0  0
    3.7080   11.0210   10.7900 H   0  0  0  0  0  0  0  0  0  0  0  0
    5.6410   10.1720   16.8760 H   0  0  0  0  0  0  0  0  0  0  0  0
    7.8830   13.4280   14.6780 H   0  0  0  0  0  0  0  0  0  0  0  0
    7.1510   13.5240   13.0710 H   0  0  0  0  0  0  0  0  0  0  0  0
    1.5030   11.1870    9.4120 H   0  0  0  0  0  0  0  0  0  0  0  0
   -0.1460   11.0460   10.0730 H   0  0  0  0  0  0  0  0  0  0  0  0
    2.0050    9.9960    7.5640 H   0  0  0  0  0  0  0  0  0  0  0  0
    1.3330    7.7090    5.6800 H   0  0  0  0  0  0  0  0  0  0  0  0
  1 22  1  0  0  0  0
  1 21  1  0  0  0  0
  2 23  1  6  0  0  0
  2  1  1  0  0  0  0
  2  3  1  0  0  0  0
  3 25  1  0  0  0  0
  3 24  1  0  0  0  0
  4  3  1  0  0  0  0
  4 12  1  0  0  0  0
  5  6  2  0  0  0  0
  5  4  1  0  0  0  0
  6  7  1  0  0  0  0
  7 12  2  0  0  0  0
  7  8  1  0  0  0  0
  8 13  1  6  0  0  0
  8  9  1  0  0  0  0
  9 10  2  0  0  0  0
 10 27  1  0  0  0  0
 11 10  1  0  0  0  0
 12 11  1  0  0  0  0
 13 28  1  0  0  0  0
 14  2  1  0  0  0  0
 15 31  1  0  0  0  0
 15 14  1  0  0  0  0
 16 17  1  6  0  0  0
 16 15  1  0  0  0  0
 18 32  1  0  0  0  0
 18 16  1  0  0  0  0
 19 18  1  0  0  0  0
 20  1  1  0  0  0  0
 26  5  1  0  0  0  0
 29 13  1  0  0  0  0
 30 15  1  0  0  0  0
 33 19  1  0  0  0  0
M  END
>  <Pose>
1

>  <Score>
-7.07

$$$$
