
 OpenBabel10152116493D

 47 51  0  0  1  0  0  0  0  0999 V2000
   -0.0060   10.0230   10.7790 C   0  0  0  0  0  0  0  0  0  0  0  0
    1.4340    9.6850   10.3670 C   0  0  1  0  0  0  0  0  0  0  0  0
    2.4010    9.7320   11.5420 C   0  0  0  0  0  0  0  0  0  0  0  0
    3.0520   10.8960   11.6950 C   0  0  0  0  0  0  0  0  0  0  0  0
    4.0040   11.1030   12.7630 C   0  0  0  0  0  0  0  0  0  0  0  0
    4.2740   10.0800   13.6830 C   0  0  0  0  0  0  0  0  0  0  0  0
    5.2320   10.3340   14.6790 C   0  0  0  0  0  0  0  0  0  0  0  0
    5.8440   11.5980   14.7660 C   0  0  0  0  0  0  0  0  0  0  0  0
    5.5490   12.6050   13.8520 C   0  0  0  0  0  0  0  0  0  0  0  0
    4.6450   12.3480   12.8340 C   0  0  0  0  0  0  0  0  0  0  0  0
    5.7720    9.1740   15.8390 C   0  0  0  0  0  0  0  0  0  0  0  0
    3.5030    8.7990   13.5470 C   0  0  0  0  0  0  0  0  0  0  0  0
    3.6760    7.8960   14.3740 O   0  0  0  0  0  0  0  0  0  0  0  0
    2.5980    8.6770   12.4600 N   0  0  0  0  0  0  0  0  0  0  0  0
    1.8420    7.4550   12.3980 C   0  0  0  0  0  0  0  0  0  0  0  0
    2.3000    6.3930   11.6060 C   0  0  0  0  0  0  0  0  0  0  0  0
    1.7370    5.1190   11.7450 C   0  0  0  0  0  0  0  0  0  0  0  0
    0.6900    4.9070   12.6420 C   0  0  0  0  0  0  0  0  0  0  0  0
    0.1600    5.9810   13.3490 C   0  0  0  0  0  0  0  0  0  0  0  0
    0.7200    7.2530   13.2050 C   0  0  0  0  0  0  0  0  0  0  0  0
    1.5170    8.4900    9.5560 N   0  0  0  0  0  0  0  0  0  0  0  0
    1.1780    8.1710    8.2690 C   0  0  2  0  0  0  0  0  0  0  0  0
    2.2330    8.1190    7.4220 N   0  0  0  0  0  0  0  0  0  0  0  0
    2.0220    8.1050    6.0900 C   0  0  0  0  0  0  0  0  0  0  0  0
    0.8650    8.2440    5.4430 N   0  0  0  0  0  0  0  0  0  0  0  0
   -0.1760    8.3150    6.2830 C   0  0  0  0  0  0  0  0  0  0  0  0
   -0.0720    8.1340    7.6570 C   0  0  2  0  0  0  0  0  0  0  0  0
   -1.3860    8.0650    8.0180 N   0  0  0  0  0  0  0  0  0  0  0  0
   -2.1080    8.7150    7.0600 C   0  0  0  0  0  0  0  0  0  0  0  0
   -1.4410    8.7120    5.9300 N   0  0  0  0  0  0  0  0  0  0  0  0
   -0.0570   11.0450   11.1750 H   0  0  0  0  0  0  0  0  0  0  0  0
   -0.4100    9.3670   11.5480 H   0  0  0  0  0  0  0  0  0  0  0  0
   -0.6930    9.9580    9.9290 H   0  0  0  0  0  0  0  0  0  0  0  0
    1.6930   10.4920    9.6690 H   0  0  0  0  0  0  0  0  0  0  0  0
    2.9000   11.7180   10.9980 H   0  0  0  0  0  0  0  0  0  0  0  0
    6.5610   11.8050   15.5580 H   0  0  0  0  0  0  0  0  0  0  0  0
    6.0210   13.5810   13.9310 H   0  0  0  0  0  0  0  0  0  0  0  0
    4.4310   13.1320   12.1080 H   0  0  0  0  0  0  0  0  0  0  0  0
    3.1380    6.5350   10.9310 H   0  0  0  0  0  0  0  0  0  0  0  0
    2.1360    4.2840   11.1750 H   0  0  0  0  0  0  0  0  0  0  0  0
    0.2800    3.9100   12.7820 H   0  0  0  0  0  0  0  0  0  0  0  0
   -0.6760    5.8340   14.0290 H   0  0  0  0  0  0  0  0  0  0  0  0
    0.2760    8.0770   13.7490 H   0  0  0  0  0  0  0  0  0  0  0  0
    1.8660    7.6630   10.0320 H   0  0  0  0  0  0  0  0  0  0  0  0
    2.9060    8.0060    5.4710 H   0  0  0  0  0  0  0  0  0  0  0  0
   -1.7820    7.4680    8.7260 H   0  0  0  0  0  0  0  0  0  0  0  0
   -3.1050    9.1060    7.2270 H   0  0  0  0  0  0  0  0  0  0  0  0
  1 31  1  0  0  0  0
  1 32  1  0  0  0  0
  2 34  1  6  0  0  0
  2  1  1  0  0  0  0
  2  3  1  0  0  0  0
  3  4  2  0  0  0  0
  3 14  1  0  0  0  0
  4  5  1  0  0  0  0
  5 10  2  0  0  0  0
  5  6  1  0  0  0  0
  6  7  2  0  0  0  0
  7  8  1  0  0  0  0
  7 11  1  0  0  0  0
  8 36  1  0  0  0  0
  9 37  1  0  0  0  0
  9  8  2  0  0  0  0
 10  9  1  0  0  0  0
 12  6  1  0  0  0  0
 12 13  2  0  0  0  0
 14 12  1  0  0  0  0
 15 14  1  0  0  0  0
 15 20  1  0  0  0  0
 16 17  1  0  0  0  0
 16 15  2  0  0  0  0
 17 18  2  0  0  0  0
 18 41  1  0  0  0  0
 18 19  1  0  0  0  0
 19 42  1  0  0  0  0
 20 19  2  0  0  0  0
 20 43  1  0  0  0  0
 21 44  1  0  0  0  0
 21  2  1  0  0  0  0
 22 21  1  6  0  0  0
 23 22  1  0  0  0  0
 24 23  2  0  0  0  0
 25 24  1  0  0  0  0
 25 26  2  0  0  0  0
 27 26  1  1  0  0  0
 27 28  1  0  0  0  0
 27 22  1  0  0  0  0
 28 46  1  0  0  0  0
 29 47  1  0  0  0  0
 29 28  1  0  0  0  0
 30 26  1  0  0  0  0
 30 29  1  0  0  0  0
 33  1  1  0  0  0  0
 35  4  1  0  0  0  0
 38 10  1  0  0  0  0
 39 16  1  0  0  0  0
 40 17  1  0  0  0  0
 45 24  1  0  0  0  0
M  END
>  <Pose>
3

>  <Score>
-7.84

$$$$

 OpenBabel10152116493D

 47 51  0  0  1  0  0  0  0  0999 V2000
   -0.3590   10.6610   11.4020 C   0  0  0  0  0  0  0  0  0  0  0  0
    0.6660    9.8560   10.5910 C   0  0  1  0  0  0  0  0  0  0  0  0
    0.9070    8.4700   11.1720 C   0  0  0  0  0  0  0  0  0  0  0  0
    0.0630    7.5190   10.7400 C   0  0  0  0  0  0  0  0  0  0  0  0
    0.1590    6.1510   11.1960 C   0  0  0  0  0  0  0  0  0  0  0  0
    1.1520    5.7730   12.1120 C   0  0  0  0  0  0  0  0  0  0  0  0
    1.1720    4.4350   12.5380 C   0  0  0  0  0  0  0  0  0  0  0  0
    0.2550    3.5100   12.0080 C   0  0  0  0  0  0  0  0  0  0  0  0
   -0.7120    3.9020   11.0870 C   0  0  0  0  0  0  0  0  0  0  0  0
   -0.7740    5.2300   10.6990 C   0  0  0  0  0  0  0  0  0  0  0  0
    2.2500    3.8020   13.7310 C   0  0  0  0  0  0  0  0  0  0  0  0
    2.1310    6.8250   12.5500 C   0  0  0  0  0  0  0  0  0  0  0  0
    3.0530    6.5150   13.3140 O   0  0  0  0  0  0  0  0  0  0  0  0
    1.9540    8.1470   12.0630 N   0  0  0  0  0  0  0  0  0  0  0  0
    2.9440    9.1090   12.4650 C   0  0  0  0  0  0  0  0  0  0  0  0
    3.6000    9.8780   11.4950 C   0  0  0  0  0  0  0  0  0  0  0  0
    4.3560   10.9940   11.8750 C   0  0  0  0  0  0  0  0  0  0  0  0
    4.4920   11.3240   13.2230 C   0  0  0  0  0  0  0  0  0  0  0  0
    3.9330   10.5000   14.1950 C   0  0  0  0  0  0  0  0  0  0  0  0
    3.1850    9.3840   13.8140 C   0  0  0  0  0  0  0  0  0  0  0  0
    0.4000    9.8860    9.1700 N   0  0  0  0  0  0  0  0  0  0  0  0
    0.5020    8.9800    8.1490 C   0  0  2  0  0  0  0  0  0  0  0  0
    1.7770    8.6710    7.8160 N   0  0  0  0  0  0  0  0  0  0  0  0
    2.0300    8.0290    6.6580 C   0  0  0  0  0  0  0  0  0  0  0  0
    1.1700    7.7250    5.6850 N   0  0  0  0  0  0  0  0  0  0  0  0
   -0.0890    8.0500    6.0080 C   0  0  0  0  0  0  0  0  0  0  0  0
   -0.4670    8.5260    7.2570 C   0  0  2  0  0  0  0  0  0  0  0  0
   -1.8270    8.4780    7.1620 N   0  0  0  0  0  0  0  0  0  0  0  0
   -2.1470    8.5340    5.8370 C   0  0  0  0  0  0  0  0  0  0  0  0
   -1.1370    8.0950    5.1230 N   0  0  0  0  0  0  0  0  0  0  0  0
    0.0050   10.8180   12.4250 H   0  0  0  0  0  0  0  0  0  0  0  0
   -1.3320   10.1800   11.4860 H   0  0  0  0  0  0  0  0  0  0  0  0
   -0.5420   11.6440   10.9580 H   0  0  0  0  0  0  0  0  0  0  0  0
    1.5880   10.4440   10.6960 H   0  0  0  0  0  0  0  0  0  0  0  0
   -0.7400    7.7570   10.0460 H   0  0  0  0  0  0  0  0  0  0  0  0
    0.2930    2.4660   12.3140 H   0  0  0  0  0  0  0  0  0  0  0  0
   -1.4120    3.1780   10.6770 H   0  0  0  0  0  0  0  0  0  0  0  0
   -1.5450    5.5380    9.9930 H   0  0  0  0  0  0  0  0  0  0  0  0
    3.4730    9.6550   10.4400 H   0  0  0  0  0  0  0  0  0  0  0  0
    4.8110   11.6250   11.1170 H   0  0  0  0  0  0  0  0  0  0  0  0
    5.0420   12.2150   13.5180 H   0  0  0  0  0  0  0  0  0  0  0  0
    4.0580   10.7300   15.2500 H   0  0  0  0  0  0  0  0  0  0  0  0
    2.7790    8.7450   14.5880 H   0  0  0  0  0  0  0  0  0  0  0  0
    0.1060   10.7850    8.7990 H   0  0  0  0  0  0  0  0  0  0  0  0
    3.0650    7.7620    6.4790 H   0  0  0  0  0  0  0  0  0  0  0  0
   -2.4710    8.2270    7.8960 H   0  0  0  0  0  0  0  0  0  0  0  0
   -3.1200    8.8410    5.4710 H   0  0  0  0  0  0  0  0  0  0  0  0
  1 32  1  0  0  0  0
  1 31  1  0  0  0  0
  2 34  1  1  0  0  0
  2  3  1  0  0  0  0
  2  1  1  0  0  0  0
  3 14  1  0  0  0  0
  4  3  2  0  0  0  0
  4  5  1  0  0  0  0
  5  6  1  0  0  0  0
  6  7  2  0  0  0  0
  6 12  1  0  0  0  0
  7 11  1  0  0  0  0
  8 36  1  0  0  0  0
  8  7  1  0  0  0  0
  9  8  2  0  0  0  0
 10  9  1  0  0  0  0
 10  5  2  0  0  0  0
 12 13  2  0  0  0  0
 14 15  1  0  0  0  0
 14 12  1  0  0  0  0
 15 20  1  0  0  0  0
 16 17  1  0  0  0  0
 16 15  2  0  0  0  0
 17 18  2  0  0  0  0
 18 41  1  0  0  0  0
 18 19  1  0  0  0  0
 19 42  1  0  0  0  0
 20 19  2  0  0  0  0
 20 43  1  0  0  0  0
 21  2  1  0  0  0  0
 22 21  1  6  0  0  0
 23 22  1  0  0  0  0
 24 23  2  0  0  0  0
 25 26  2  0  0  0  0
 25 24  1  0  0  0  0
 27 26  1  6  0  0  0
 27 22  1  0  0  0  0
 28 27  1  0  0  0  0
 28 46  1  0  0  0  0
 29 28  1  0  0  0  0
 30 29  1  0  0  0  0
 30 26  1  0  0  0  0
 33  1  1  0  0  0  0
 35  4  1  0  0  0  0
 37  9  1  0  0  0  0
 38 10  1  0  0  0  0
 39 16  1  0  0  0  0
 40 17  1  0  0  0  0
 44 21  1  0  0  0  0
 45 24  1  0  0  0  0
 47 29  1  0  0  0  0
M  END
>  <Pose>
1

>  <Score>
-7.65

$$$$

 OpenBabel10152116493D

 47 51  0  0  1  0  0  0  0  0999 V2000
   -0.0800    9.5340   10.3790 C   0  0  0  0  0  0  0  0  0  0  0  0
    1.4290    9.4790   10.1000 C   0  0  1  0  0  0  0  0  0  0  0  0
    2.2570    9.5220   11.3760 C   0  0  0  0  0  0  0  0  0  0  0  0
    3.1020   10.5610   11.4710 C   0  0  0  0  0  0  0  0  0  0  0  0
    3.9580   10.7450   12.6210 C   0  0  0  0  0  0  0  0  0  0  0  0
    3.9260    9.8340   13.6860 C   0  0  0  0  0  0  0  0  0  0  0  0
    4.8050   10.0530   14.7590 C   0  0  0  0  0  0  0  0  0  0  0  0
    5.6370   11.1870   14.7720 C   0  0  0  0  0  0  0  0  0  0  0  0
    5.6410   12.0890   13.7120 C   0  0  0  0  0  0  0  0  0  0  0  0
    4.8160   11.8540   12.6240 C   0  0  0  0  0  0  0  0  0  0  0  0
    4.9850    8.9940   16.1120 C   0  0  0  0  0  0  0  0  0  0  0  0
    2.9400    8.7040   13.6060 C   0  0  0  0  0  0  0  0  0  0  0  0
    2.8470    7.9120   14.5510 O   0  0  0  0  0  0  0  0  0  0  0  0
    2.1480    8.5900   12.4330 N   0  0  0  0  0  0  0  0  0  0  0  0
    1.1810    7.5260   12.4210 C   0  0  0  0  0  0  0  0  0  0  0  0
    0.0480    7.6090   13.2410 C   0  0  0  0  0  0  0  0  0  0  0  0
   -1.0260    6.7310   13.0470 C   0  0  0  0  0  0  0  0  0  0  0  0
   -0.9590    5.7450   12.0630 C   0  0  0  0  0  0  0  0  0  0  0  0
    0.2080    5.5900   11.3210 C   0  0  0  0  0  0  0  0  0  0  0  0
    1.2800    6.4630   11.5210 C   0  0  0  0  0  0  0  0  0  0  0  0
    1.7870    8.4270    9.1740 N   0  0  0  0  0  0  0  0  0  0  0  0
    1.3510    8.0390    7.9370 C   0  0  2  0  0  0  0  0  0  0  0  0
    2.3410    7.9050    7.0240 N   0  0  0  0  0  0  0  0  0  0  0  0
    2.0370    7.8150    5.7140 C   0  0  0  0  0  0  0  0  0  0  0  0
    0.8410    7.9480    5.1400 N   0  0  0  0  0  0  0  0  0  0  0  0
   -0.1360    8.1010    6.0440 C   0  0  0  0  0  0  0  0  0  0  0  0
    0.0600    8.0020    7.4160 C   0  0  2  0  0  0  0  0  0  0  0  0
   -1.2270    7.9930    7.8700 N   0  0  0  0  0  0  0  0  0  0  0  0
   -1.9990    8.6040    6.9240 C   0  0  0  0  0  0  0  0  0  0  0  0
   -1.4130    8.5120    5.7540 N   0  0  0  0  0  0  0  0  0  0  0  0
   -0.3390   10.4760   10.8790 H   0  0  0  0  0  0  0  0  0  0  0  0
   -0.4400    8.7290   11.0170 H   0  0  0  0  0  0  0  0  0  0  0  0
   -0.6620    9.4750    9.4540 H   0  0  0  0  0  0  0  0  0  0  0  0
    1.6140   10.4000    9.5320 H   0  0  0  0  0  0  0  0  0  0  0  0
    3.1860   11.2880   10.6660 H   0  0  0  0  0  0  0  0  0  0  0  0
    6.2940   11.3740   15.6200 H   0  0  0  0  0  0  0  0  0  0  0  0
    6.2820   12.9660   13.7340 H   0  0  0  0  0  0  0  0  0  0  0  0
    4.8360   12.5510   11.7870 H   0  0  0  0  0  0  0  0  0  0  0  0
   -0.0340    8.3950   13.9860 H   0  0  0  0  0  0  0  0  0  0  0  0
   -1.9290    6.8380   13.6420 H   0  0  0  0  0  0  0  0  0  0  0  0
   -1.8080    5.0910   11.8820 H   0  0  0  0  0  0  0  0  0  0  0  0
    0.2840    4.8050   10.5720 H   0  0  0  0  0  0  0  0  0  0  0  0
    2.1860    6.3080   10.9480 H   0  0  0  0  0  0  0  0  0  0  0  0
    2.4990    7.7800    9.5020 H   0  0  0  0  0  0  0  0  0  0  0  0
    2.8720    7.6530    5.0420 H   0  0  0  0  0  0  0  0  0  0  0  0
   -1.5860    7.4530    8.6400 H   0  0  0  0  0  0  0  0  0  0  0  0
   -2.9710    9.0340    7.1360 H   0  0  0  0  0  0  0  0  0  0  0  0
  1 31  1  0  0  0  0
  1 32  1  0  0  0  0
  2 34  1  6  0  0  0
  2  1  1  0  0  0  0
  2  3  1  0  0  0  0
  3  4  2  0  0  0  0
  3 14  1  0  0  0  0
  4  5  1  0  0  0  0
  5 10  2  0  0  0  0
  5  6  1  0  0  0  0
  6  7  2  0  0  0  0
  7  8  1  0  0  0  0
  7 11  1  0  0  0  0
  8 36  1  0  0  0  0
  9 37  1  0  0  0  0
  9  8  2  0  0  0  0
 10  9  1  0  0  0  0
 12  6  1  0  0  0  0
 12 13  2  0  0  0  0
 14 12  1  0  0  0  0
 15 14  1  0  0  0  0
 15 16  1  0  0  0  0
 16 39  1  0  0  0  0
 17 16  2  0  0  0  0
 17 40  1  0  0  0  0
 18 17  1  0  0  0  0
 19 20  1  0  0  0  0
 19 18  2  0  0  0  0
 20 15  2  0  0  0  0
 21 44  1  0  0  0  0
 21  2  1  0  0  0  0
 22 21  1  6  0  0  0
 23 22  1  0  0  0  0
 24 23  2  0  0  0  0
 25 24  1  0  0  0  0
 25 26  2  0  0  0  0
 27 26  1  6  0  0  0
 27 28  1  0  0  0  0
 27 22  1  0  0  0  0
 28 46  1  0  0  0  0
 29 47  1  0  0  0  0
 29 28  1  0  0  0  0
 30 26  1  0  0  0  0
 30 29  1  0  0  0  0
 33  1  1  0  0  0  0
 35  4  1  0  0  0  0
 38 10  1  0  0  0  0
 41 18  1  0  0  0  0
 42 19  1  0  0  0  0
 43 20  1  0  0  0  0
 45 24  1  0  0  0  0
M  END
>  <Pose>
2

>  <Score>
-7.45

$$$$

 OpenBabel10152116493D

 47 51  0  0  1  0  0  0  0  0999 V2000
    1.1680    5.8820   13.5540 C   0  0  0  0  0  0  0  0  0  0  0  0
    0.9160    7.3750   13.2980 C   0  0  1  0  0  0  0  0  0  0  0  0
    2.0570    8.2500   13.7990 C   0  0  0  0  0  0  0  0  0  0  0  0
    2.5370    9.1260   12.9020 C   0  0  0  0  0  0  0  0  0  0  0  0
    3.6200   10.0280   13.2230 C   0  0  0  0  0  0  0  0  0  0  0  0
    4.2040   10.0160   14.4970 C   0  0  0  0  0  0  0  0  0  0  0  0
    5.2720   10.8960   14.7340 C   0  0  0  0  0  0  0  0  0  0  0  0
    5.6870   11.7930   13.7320 C   0  0  0  0  0  0  0  0  0  0  0  0
    5.0810   11.8000   12.4790 C   0  0  0  0  0  0  0  0  0  0  0  0
    4.0620   10.9000   12.2170 C   0  0  0  0  0  0  0  0  0  0  0  0
    6.1830   10.9610   16.2000 C   0  0  0  0  0  0  0  0  0  0  0  0
    3.6290    9.0760   15.5170 C   0  0  0  0  0  0  0  0  0  0  0  0
    4.0840    9.0770   16.6680 O   0  0  0  0  0  0  0  0  0  0  0  0
    2.5750    8.2140   15.1130 N   0  0  0  0  0  0  0  0  0  0  0  0
    2.0190    7.3690   16.1350 C   0  0  0  0  0  0  0  0  0  0  0  0
    2.7500    6.2680   16.6010 C   0  0  0  0  0  0  0  0  0  0  0  0
    2.3540    5.6050   17.7680 C   0  0  0  0  0  0  0  0  0  0  0  0
    1.2090    6.0100   18.4530 C   0  0  0  0  0  0  0  0  0  0  0  0
    0.4210    7.0320   17.9340 C   0  0  0  0  0  0  0  0  0  0  0  0
    0.8140    7.6890   16.7660 C   0  0  0  0  0  0  0  0  0  0  0  0
    0.4890    7.6440   11.9430 N   0  0  0  0  0  0  0  0  0  0  0  0
    0.5620    8.7230   11.1040 C   0  0  2  0  0  0  0  0  0  0  0  0
   -0.2150    9.7640   11.4820 N   0  0  0  0  0  0  0  0  0  0  0  0
   -0.4640   10.7640   10.6120 C   0  0  0  0  0  0  0  0  0  0  0  0
   -0.1230   10.8340    9.3250 N   0  0  0  0  0  0  0  0  0  0  0  0
    0.6300    9.7910    8.9470 C   0  0  0  0  0  0  0  0  0  0  0  0
    1.1030    8.8240    9.8250 C   0  0  2  0  0  0  0  0  0  0  0  0
    1.9800    8.1470    9.0280 N   0  0  0  0  0  0  0  0  0  0  0  0
    1.5940    8.3430    7.7340 C   0  0  0  0  0  0  0  0  0  0  0  0
    0.9110    9.4600    7.6450 N   0  0  0  0  0  0  0  0  0  0  0  0
    1.2490    5.6900   14.6320 H   0  0  0  0  0  0  0  0  0  0  0  0
    2.0810    5.5040   13.0980 H   0  0  0  0  0  0  0  0  0  0  0  0
    0.3520    5.2640   13.1650 H   0  0  0  0  0  0  0  0  0  0  0  0
    0.0230    7.5870   13.9010 H   0  0  0  0  0  0  0  0  0  0  0  0
    2.1380    9.1660   11.8910 H   0  0  0  0  0  0  0  0  0  0  0  0
    6.4930   12.4980   13.9280 H   0  0  0  0  0  0  0  0  0  0  0  0
    5.4040   12.5000   11.7120 H   0  0  0  0  0  0  0  0  0  0  0  0
    3.6040   10.8940   11.2280 H   0  0  0  0  0  0  0  0  0  0  0  0
    3.6640    5.9650   16.0990 H   0  0  0  0  0  0  0  0  0  0  0  0
    2.9580    4.7910   18.1620 H   0  0  0  0  0  0  0  0  0  0  0  0
    0.9240    5.5240   19.3830 H   0  0  0  0  0  0  0  0  0  0  0  0
   -0.4910    7.3360   18.4430 H   0  0  0  0  0  0  0  0  0  0  0  0
    0.1730    8.4650   16.3690 H   0  0  0  0  0  0  0  0  0  0  0  0
   -0.0260    6.8950   11.4900 H   0  0  0  0  0  0  0  0  0  0  0  0
   -1.0470   11.5940   10.9960 H   0  0  0  0  0  0  0  0  0  0  0  0
    2.8670    7.7590    9.3080 H   0  0  0  0  0  0  0  0  0  0  0  0
    1.8800    7.6870    6.9210 H   0  0  0  0  0  0  0  0  0  0  0  0
  1 31  1  0  0  0  0
  2  1  1  0  0  0  0
  2  3  1  0  0  0  0
  2 34  1  1  0  0  0
  3 14  1  0  0  0  0
  4  5  1  0  0  0  0
  4  3  2  0  0  0  0
  5  6  1  0  0  0  0
  6  7  2  0  0  0  0
  6 12  1  0  0  0  0
  7 11  1  0  0  0  0
  8 36  1  0  0  0  0
  8  7  1  0  0  0  0
  9  8  2  0  0  0  0
 10  9  1  0  0  0  0
 10  5  2  0  0  0  0
 12 13  2  0  0  0  0
 14 12  1  0  0  0  0
 14 15  1  0  0  0  0
 15 16  2  0  0  0  0
 15 20  1  0  0  0  0
 16 17  1  0  0  0  0
 17 40  1  0  0  0  0
 17 18  2  0  0  0  0
 18 41  1  0  0  0  0
 19 42  1  0  0  0  0
 19 18  1  0  0  0  0
 20 19  2  0  0  0  0
 21  2  1  0  0  0  0
 22 23  1  0  0  0  0
 22 21  1  6  0  0  0
 24 45  1  0  0  0  0
 24 23  2  0  0  0  0
 25 24  1  0  0  0  0
 26 25  2  0  0  0  0
 27 26  1  6  0  0  0
 27 22  1  0  0  0  0
 28 46  1  0  0  0  0
 28 27  1  0  0  0  0
 29 28  1  0  0  0  0
 30 29  1  0  0  0  0
 30 26  1  0  0  0  0
 32  1  1  0  0  0  0
 33  1  1  0  0  0  0
 35  4  1  0  0  0  0
 37  9  1  0  0  0  0
 38 10  1  0  0  0  0
 39 16  1  0  0  0  0
 43 20  1  0  0  0  0
 44 21  1  0  0  0  0
 47 29  1  0  0  0  0
M  END
>  <Pose>
1

>  <Score>
-7.24

$$$$

 OpenBabel10152116493D

 47 51  0  0  1  0  0  0  0  0999 V2000
   -0.3110    9.4840   10.0890 C   0  0  0  0  0  0  0  0  0  0  0  0
    1.2220    9.4860    9.9930 C   0  0  1  0  0  0  0  0  0  0  0  0
    1.8870    9.1180   11.3120 C   0  0  0  0  0  0  0  0  0  0  0  0
    2.6690   10.0730   11.8400 C   0  0  0  0  0  0  0  0  0  0  0  0
    3.3710    9.8790   13.0890 C   0  0  0  0  0  0  0  0  0  0  0  0
    3.2500    8.6730   13.7940 C   0  0  0  0  0  0  0  0  0  0  0  0
    3.9820    8.5370   14.9850 C   0  0  0  0  0  0  0  0  0  0  0  0
    4.7580    9.6080   15.4650 C   0  0  0  0  0  0  0  0  0  0  0  0
    4.8500   10.8020   14.7580 C   0  0  0  0  0  0  0  0  0  0  0  0
    4.1740   10.9290   13.5560 C   0  0  0  0  0  0  0  0  0  0  0  0
    4.0430    7.0980   15.9400 C   0  0  0  0  0  0  0  0  0  0  0  0
    2.3300    7.6270   13.2320 C   0  0  0  0  0  0  0  0  0  0  0  0
    2.1570    6.5730   13.8550 O   0  0  0  0  0  0  0  0  0  0  0  0
    1.6920    7.8950   11.9920 N   0  0  0  0  0  0  0  0  0  0  0  0
    0.7790    6.8900   11.5180 C   0  0  0  0  0  0  0  0  0  0  0  0
   -0.4920    7.2640   11.0630 C   0  0  0  0  0  0  0  0  0  0  0  0
   -1.2810    6.3520   10.3530 C   0  0  0  0  0  0  0  0  0  0  0  0
   -0.8240    5.0530   10.1280 C   0  0  0  0  0  0  0  0  0  0  0  0
    0.3890    4.6450   10.6730 C   0  0  0  0  0  0  0  0  0  0  0  0
    1.1720    5.5560   11.3860 C   0  0  0  0  0  0  0  0  0  0  0  0
    1.7100    8.7640    8.8390 N   0  0  0  0  0  0  0  0  0  0  0  0
    1.1750    8.3890    7.6370 C   0  0  2  0  0  0  0  0  0  0  0  0
    2.0680    8.3780    6.6200 N   0  0  0  0  0  0  0  0  0  0  0  0
    1.6320    8.3140    5.3460 C   0  0  0  0  0  0  0  0  0  0  0  0
    0.3740    8.3650    4.9070 N   0  0  0  0  0  0  0  0  0  0  0  0
   -0.5090    8.3970    5.9150 C   0  0  0  0  0  0  0  0  0  0  0  0
   -0.1570    8.2610    7.2520 C   0  0  2  0  0  0  0  0  0  0  0  0
   -1.3820    8.1230    7.8380 N   0  0  0  0  0  0  0  0  0  0  0  0
   -2.2990    8.7020    7.0090 C   0  0  0  0  0  0  0  0  0  0  0  0
   -1.8390    8.7080    5.7810 N   0  0  0  0  0  0  0  0  0  0  0  0
   -0.6460   10.2310   10.8200 H   0  0  0  0  0  0  0  0  0  0  0  0
   -0.7310    8.5290   10.4000 H   0  0  0  0  0  0  0  0  0  0  0  0
   -0.7740    9.7240    9.1280 H   0  0  0  0  0  0  0  0  0  0  0  0
    1.4580   10.5340    9.7630 H   0  0  0  0  0  0  0  0  0  0  0  0
    2.8180   11.0200   11.3270 H   0  0  0  0  0  0  0  0  0  0  0  0
    5.2980    9.5130   16.4050 H   0  0  0  0  0  0  0  0  0  0  0  0
    5.4460   11.6270   15.1400 H   0  0  0  0  0  0  0  0  0  0  0  0
    4.2650   11.8580   12.9940 H   0  0  0  0  0  0  0  0  0  0  0  0
   -0.8450    8.2820   11.1980 H   0  0  0  0  0  0  0  0  0  0  0  0
   -2.2400    6.6630    9.9460 H   0  0  0  0  0  0  0  0  0  0  0  0
   -1.4160    4.3560    9.5400 H   0  0  0  0  0  0  0  0  0  0  0  0
    0.7420    3.6270   10.5300 H   0  0  0  0  0  0  0  0  0  0  0  0
    2.1020    5.2090   11.8190 H   0  0  0  0  0  0  0  0  0  0  0  0
    2.6540    8.3970    8.9210 H   0  0  0  0  0  0  0  0  0  0  0  0
    2.4000    8.2510    4.5830 H   0  0  0  0  0  0  0  0  0  0  0  0
   -1.6110    7.5240    8.6140 H   0  0  0  0  0  0  0  0  0  0  0  0
   -3.2750    9.0370    7.3420 H   0  0  0  0  0  0  0  0  0  0  0  0
  1 32  1  0  0  0  0
  1 31  1  0  0  0  0
  2 34  1  6  0  0  0
  2  1  1  0  0  0  0
  2  3  1  0  0  0  0
  3  4  2  0  0  0  0
  3 14  1  0  0  0  0
  4  5  1  0  0  0  0
  5 10  2  0  0  0  0
  5  6  1  0  0  0  0
  6  7  2  0  0  0  0
  7  8  1  0  0  0  0
  7 11  1  0  0  0  0
  8 36  1  0  0  0  0
  9 37  1  0  0  0  0
  9  8  2  0  0  0  0
 10  9  1  0  0  0  0
 12  6  1  0  0  0  0
 12 13  2  0  0  0  0
 14 12  1  0  0  0  0
 15 14  1  0  0  0  0
 16 39  1  0  0  0  0
 16 15  2  0  0  0  0
 17 16  1  0  0  0  0
 18 17  2  0  0  0  0
 18 19  1  0  0  0  0
 19 20  2  0  0  0  0
 20 15  1  0  0  0  0
 20 43  1  0  0  0  0
 21 44  1  0  0  0  0
 21  2  1  0  0  0  0
 22 21  1  6  0  0  0
 23 22  1  0  0  0  0
 24 23  2  0  0  0  0
 25 24  1  0  0  0  0
 25 26  2  0  0  0  0
 27 26  1  1  0  0  0
 27 22  1  0  0  0  0
 27 28  1  0  0  0  0
 28 46  1  0  0  0  0
 29 47  1  0  0  0  0
 29 28  1  0  0  0  0
 30 26  1  0  0  0  0
 30 29  1  0  0  0  0
 33  1  1  0  0  0  0
 35  4  1  0  0  0  0
 38 10  1  0  0  0  0
 40 17  1  0  0  0  0
 41 18  1  0  0  0  0
 42 19  1  0  0  0  0
 45 24  1  0  0  0  0
M  END
>  <Pose>
1

>  <Score>
-6.86

$$$$

 OpenBabel10152116493D

 47 51  0  0  1  0  0  0  0  0999 V2000
    1.4960    9.7630   14.3850 C   0  0  0  0  0  0  0  0  0  0  0  0
    2.4010    8.7100   13.7300 C   0  0  1  0  0  0  0  0  0  0  0  0
    1.7350    8.0300   12.5420 C   0  0  0  0  0  0  0  0  0  0  0  0
    1.4140    8.8470   11.5260 C   0  0  0  0  0  0  0  0  0  0  0  0
    0.7760    8.3570   10.3250 C   0  0  0  0  0  0  0  0  0  0  0  0
    0.4750    6.9940   10.1850 C   0  0  0  0  0  0  0  0  0  0  0  0
   -0.1720    6.5870    9.0070 C   0  0  0  0  0  0  0  0  0  0  0  0
   -0.4470    7.5210    7.9910 C   0  0  0  0  0  0  0  0  0  0  0  0
   -0.1240    8.8660    8.1440 C   0  0  0  0  0  0  0  0  0  0  0  0
    0.4680    9.2880    9.3230 C   0  0  0  0  0  0  0  0  0  0  0  0
   -0.7130    4.9770    8.6910 C   0  0  0  0  0  0  0  0  0  0  0  0
    0.8870    6.0720   11.2960 C   0  0  0  0  0  0  0  0  0  0  0  0
    0.6850    4.8570   11.1820 O   0  0  0  0  0  0  0  0  0  0  0  0
    1.4950    6.6410   12.4460 N   0  0  0  0  0  0  0  0  0  0  0  0
    1.9210    5.7160   13.4620 C   0  0  0  0  0  0  0  0  0  0  0  0
    2.9280    4.7850   13.1750 C   0  0  0  0  0  0  0  0  0  0  0  0
    3.5410    4.0710   14.2120 C   0  0  0  0  0  0  0  0  0  0  0  0
    3.1260    4.2530   15.5310 C   0  0  0  0  0  0  0  0  0  0  0  0
    2.0530    5.0940   15.8070 C   0  0  0  0  0  0  0  0  0  0  0  0
    1.4390    5.8010   14.7700 C   0  0  0  0  0  0  0  0  0  0  0  0
    3.7390    9.2000   13.4820 N   0  0  0  0  0  0  0  0  0  0  0  0
    4.3000   10.4380   13.3230 C   0  0  2  0  0  0  0  0  0  0  0  0
    4.2450   10.9050   12.0540 N   0  0  0  0  0  0  0  0  0  0  0  0
    5.0030   11.9610   11.6960 C   0  0  0  0  0  0  0  0  0  0  0  0
    5.9290   12.5880   12.4210 N   0  0  0  0  0  0  0  0  0  0  0  0
    5.9970   12.1110   13.6710 C   0  0  0  0  0  0  0  0  0  0  0  0
    5.1170   11.1660   14.1840 C   0  0  2  0  0  0  0  0  0  0  0  0
    5.4410   11.1920   15.5100 N   0  0  0  0  0  0  0  0  0  0  0  0
    6.7230   11.6490   15.6090 C   0  0  0  0  0  0  0  0  0  0  0  0
    7.0130   12.3750   14.5550 N   0  0  0  0  0  0  0  0  0  0  0  0
    0.5850    9.2910   14.7740 H   0  0  0  0  0  0  0  0  0  0  0  0
    1.1760   10.5520   13.7070 H   0  0  0  0  0  0  0  0  0  0  0  0
    1.9980   10.2620   15.2190 H   0  0  0  0  0  0  0  0  0  0  0  0
    2.5390    7.9660   14.5260 H   0  0  0  0  0  0  0  0  0  0  0  0
    1.6040    9.9170   11.5880 H   0  0  0  0  0  0  0  0  0  0  0  0
   -0.9180    7.1990    7.0640 H   0  0  0  0  0  0  0  0  0  0  0  0
   -0.3330    9.5790    7.3510 H   0  0  0  0  0  0  0  0  0  0  0  0
    0.7010   10.3450    9.4480 H   0  0  0  0  0  0  0  0  0  0  0  0
    3.2860    4.6600   12.1580 H   0  0  0  0  0  0  0  0  0  0  0  0
    4.3640    3.3960   13.9940 H   0  0  0  0  0  0  0  0  0  0  0  0
    3.6290    3.7320   16.3420 H   0  0  0  0  0  0  0  0  0  0  0  0
    1.7010    5.2210   16.8280 H   0  0  0  0  0  0  0  0  0  0  0  0
    0.5920    6.4330   15.0060 H   0  0  0  0  0  0  0  0  0  0  0  0
    4.4490    8.4850   13.3490 H   0  0  0  0  0  0  0  0  0  0  0  0
    4.8690   12.3200   10.6810 H   0  0  0  0  0  0  0  0  0  0  0  0
    4.8020   11.1070   16.2840 H   0  0  0  0  0  0  0  0  0  0  0  0
    7.3540   11.4710   16.4730 H   0  0  0  0  0  0  0  0  0  0  0  0
  1 31  1  0  0  0  0
  1 33  1  0  0  0  0
  2  1  1  0  0  0  0
  2 34  1  1  0  0  0
  3  2  1  0  0  0  0
  4 35  1  0  0  0  0
  4  3  2  0  0  0  0
  5  4  1  0  0  0  0
  6  5  1  0  0  0  0
  6 12  1  0  0  0  0
  7  6  2  0  0  0  0
  8  9  2  0  0  0  0
  8  7  1  0  0  0  0
  9 10  1  0  0  0  0
 10 38  1  0  0  0  0
 10  5  2  0  0  0  0
 11  7  1  0  0  0  0
 12 14  1  0  0  0  0
 13 12  2  0  0  0  0
 14  3  1  0  0  0  0
 14 15  1  0  0  0  0
 15 20  1  0  0  0  0
 16 15  2  0  0  0  0
 16 17  1  0  0  0  0
 17 18  2  0  0  0  0
 18 19  1  0  0  0  0
 18 41  1  0  0  0  0
 19 42  1  0  0  0  0
 20 43  1  0  0  0  0
 20 19  2  0  0  0  0
 21  2  1  0  0  0  0
 22 21  1  6  0  0  0
 22 27  1  0  0  0  0
 23 22  1  0  0  0  0
 24 23  2  0  0  0  0
 24 25  1  0  0  0  0
 25 26  2  0  0  0  0
 26 30  1  0  0  0  0
 27 26  1  6  0  0  0
 27 28  1  0  0  0  0
 28 29  1  0  0  0  0
 28 46  1  0  0  0  0
 29 47  1  0  0  0  0
 30 29  1  0  0  0  0
 32  1  1  0  0  0  0
 36  8  1  0  0  0  0
 37  9  1  0  0  0  0
 39 16  1  0  0  0  0
 40 17  1  0  0  0  0
 44 21  1  0  0  0  0
 45 24  1  0  0  0  0
M  END
>  <Pose>
1

>  <Score>
-6.78

$$$$

 OpenBabel10152116493D

 47 51  0  0  1  0  0  0  0  0999 V2000
   -2.3370    7.8150   10.5670 C   0  0  0  0  0  0  0  0  0  0  0  0
   -0.9880    7.6510    9.8530 C   0  0  1  0  0  0  0  0  0  0  0  0
   -0.2500    6.3920   10.2890 C   0  0  0  0  0  0  0  0  0  0  0  0
   -0.6850    5.2550    9.7250 C   0  0  0  0  0  0  0  0  0  0  0  0
   -0.0890    3.9740   10.0340 C   0  0  0  0  0  0  0  0  0  0  0  0
    0.9770    3.8850   10.9400 C   0  0  0  0  0  0  0  0  0  0  0  0
    1.4910    2.6080   11.2190 C   0  0  0  0  0  0  0  0  0  0  0  0
    0.9780    1.4780   10.5570 C   0  0  0  0  0  0  0  0  0  0  0  0
   -0.0700    1.5910    9.6490 C   0  0  0  0  0  0  0  0  0  0  0  0
   -0.6190    2.8390    9.4040 C   0  0  0  0  0  0  0  0  0  0  0  0
    2.7320    2.2820   12.3760 C   0  0  0  0  0  0  0  0  0  0  0  0
    1.5020    5.1650   11.5260 C   0  0  0  0  0  0  0  0  0  0  0  0
    2.4760    5.1290   12.2870 O   0  0  0  0  0  0  0  0  0  0  0  0
    0.8470    6.3760   11.1790 N   0  0  0  0  0  0  0  0  0  0  0  0
    1.4150    7.5810   11.7200 C   0  0  0  0  0  0  0  0  0  0  0  0
    2.4450    8.2340   11.0310 C   0  0  0  0  0  0  0  0  0  0  0  0
    2.8180    9.5350   11.3920 C   0  0  0  0  0  0  0  0  0  0  0  0
    2.1940   10.1730   12.4640 C   0  0  0  0  0  0  0  0  0  0  0  0
    1.2480    9.4870   13.2180 C   0  0  0  0  0  0  0  0  0  0  0  0
    0.8820    8.1880   12.8600 C   0  0  0  0  0  0  0  0  0  0  0  0
   -1.0870    7.8360    8.4220 N   0  0  0  0  0  0  0  0  0  0  0  0
   -0.1960    7.8340    7.3830 C   0  0  2  0  0  0  0  0  0  0  0  0
    1.0880    8.0250    7.7640 N   0  0  0  0  0  0  0  0  0  0  0  0
    2.0220    8.3340    6.8410 C   0  0  0  0  0  0  0  0  0  0  0  0
    1.8380    8.5940    5.5460 N   0  0  0  0  0  0  0  0  0  0  0  0
    0.5620    8.4240    5.1750 C   0  0  0  0  0  0  0  0  0  0  0  0
   -0.4220    7.9130    6.0120 C   0  0  2  0  0  0  0  0  0  0  0  0
   -1.4460    7.7160    5.1310 N   0  0  0  0  0  0  0  0  0  0  0  0
   -1.2470    8.5610    4.0780 C   0  0  0  0  0  0  0  0  0  0  0  0
    0.0280    8.8580    3.9880 N   0  0  0  0  0  0  0  0  0  0  0  0
   -2.1840    7.9100   11.6490 H   0  0  0  0  0  0  0  0  0  0  0  0
   -3.0190    6.9800   10.4180 H   0  0  0  0  0  0  0  0  0  0  0  0
   -2.8670    8.7090   10.2240 H   0  0  0  0  0  0  0  0  0  0  0  0
   -0.4160    8.5260   10.1900 H   0  0  0  0  0  0  0  0  0  0  0  0
   -1.5230    5.2590    9.0310 H   0  0  0  0  0  0  0  0  0  0  0  0
    1.3990    0.4930   10.7500 H   0  0  0  0  0  0  0  0  0  0  0  0
   -0.4560    0.7130    9.1370 H   0  0  0  0  0  0  0  0  0  0  0  0
   -1.4530    2.9210    8.7080 H   0  0  0  0  0  0  0  0  0  0  0  0
    2.9140    7.7640   10.1720 H   0  0  0  0  0  0  0  0  0  0  0  0
    3.5740   10.0630   10.8160 H   0  0  0  0  0  0  0  0  0  0  0  0
    2.4520   11.1980   12.7180 H   0  0  0  0  0  0  0  0  0  0  0  0
    0.7770    9.9630   14.0750 H   0  0  0  0  0  0  0  0  0  0  0  0
    0.1600    7.6660   13.4760 H   0  0  0  0  0  0  0  0  0  0  0  0
   -2.0150    8.0630    8.0740 H   0  0  0  0  0  0  0  0  0  0  0  0
    3.0400    8.4180    7.2040 H   0  0  0  0  0  0  0  0  0  0  0  0
   -2.1020    6.9520    5.1350 H   0  0  0  0  0  0  0  0  0  0  0  0
   -2.0370    8.8680    3.4030 H   0  0  0  0  0  0  0  0  0  0  0  0
  1 31  1  0  0  0  0
  2 34  1  1  0  0  0
  2  3  1  0  0  0  0
  2  1  1  0  0  0  0
  3 14  1  0  0  0  0
  4  5  1  0  0  0  0
  4  3  2  0  0  0  0
  5  6  1  0  0  0  0
  6  7  2  0  0  0  0
  6 12  1  0  0  0  0
  7 11  1  0  0  0  0
  8 36  1  0  0  0  0
  8  7  1  0  0  0  0
  9  8  2  0  0  0  0
 10  9  1  0  0  0  0
 10  5  2  0  0  0  0
 12 13  2  0  0  0  0
 14 12  1  0  0  0  0
 14 15  1  0  0  0  0
 15 20  1  0  0  0  0
 16 17  1  0  0  0  0
 16 15  2  0  0  0  0
 17 18  2  0  0  0  0
 18 41  1  0  0  0  0
 18 19  1  0  0  0  0
 19 42  1  0  0  0  0
 20 19  2  0  0  0  0
 20 43  1  0  0  0  0
 21  2  1  0  0  0  0
 22 23  1  0  0  0  0
 22 21  1  1  0  0  0
 24 45  1  0  0  0  0
 24 23  2  0  0  0  0
 25 24  1  0  0  0  0
 26 25  2  0  0  0  0
 27 26  1  1  0  0  0
 27 22  1  0  0  0  0
 28 46  1  0  0  0  0
 28 27  1  0  0  0  0
 29 28  1  0  0  0  0
 30 29  1  0  0  0  0
 30 26  1  0  0  0  0
 32  1  1  0  0  0  0
 33  1  1  0  0  0  0
 35  4  1  0  0  0  0
 37  9  1  0  0  0  0
 38 10  1  0  0  0  0
 39 16  1  0  0  0  0
 40 17  1  0  0  0  0
 44 21  1  0  0  0  0
 47 29  1  0  0  0  0
M  END
>  <Pose>
1

>  <Score>
-6.75

$$$$
