
 OpenBabel10152116503D

 50 52  0  0  1  0  0  0  0  0999 V2000
   -0.2310   10.4290   10.0260 C   0  0  0  0  0  0  0  0  0  0  0  0
   -0.0430    8.6710    9.6300 S   0  0  1  0  0  0  0  0  0  0  0  0
    0.3260    8.8770    7.8620 C   0  0  0  0  0  0  0  0  0  0  0  0
   -0.1990    7.7370    6.9990 C   0  0  0  0  0  0  0  0  0  0  0  0
    0.4590    7.7410    5.6100 C   0  0  1  0  0  0  0  0  0  0  0  0
   -0.4780    8.3390    4.5380 C   0  0  0  0  0  0  0  0  0  0  0  0
   -0.0930    9.0430    3.6110 O   0  0  0  0  0  0  0  0  0  0  0  0
   -1.7810    8.0110    4.6920 O   0  0  0  0  0  0  0  0  0  0  0  0
    1.6980    8.5510    5.6720 N   0  0  0  0  0  0  0  0  0  0  0  0
    1.7020    8.5250   10.2100 C   0  0  0  0  0  0  0  0  0  0  0  0
    1.7910    7.9130   11.6170 C   0  0  2  0  0  0  0  0  0  0  0  0
    0.7080    8.4240   12.5710 C   0  0  2  0  0  0  0  0  0  0  0  0
    1.3480    9.6420   13.2230 C   0  0  2  0  0  0  0  0  0  0  0  0
    2.8060    9.1990   13.3150 C   0  0  1  0  0  0  0  0  0  0  0  0
    3.0450    8.2610   12.2490 O   0  0  0  0  0  0  0  0  0  0  0  0
    3.8040   10.2460   13.2400 N   0  0  0  0  0  0  0  0  0  0  0  0
    3.8570   11.2060   12.2600 C   0  0  0  0  0  0  0  0  0  0  0  0
    4.8580   12.0420   12.4390 N   0  0  0  0  0  0  0  0  0  0  0  0
    5.4870   11.6000   13.5820 C   0  0  0  0  0  0  0  0  0  0  0  0
    6.6200   12.0570   14.2770 C   0  0  2  0  0  0  0  0  0  0  0  0
    6.9780   11.4210   15.4150 N   0  0  0  0  0  0  0  0  0  0  0  0
    6.2410   10.3680   15.8210 C   0  0  0  0  0  0  0  0  0  0  0  0
    5.1480    9.8400   15.2350 N   0  0  0  0  0  0  0  0  0  0  0  0
    4.8290   10.5010   14.1120 C   0  0  0  0  0  0  0  0  0  0  0  0
    7.3840   13.1210   13.8570 N   0  0  0  0  0  0  0  0  0  0  0  0
    0.7800    9.9050   14.5070 O   0  0  0  0  0  0  0  0  0  0  0  0
    0.4380    7.4770   13.6270 O   0  0  0  0  0  0  0  0  0  0  0  0
   -1.1740   10.7900    9.6080 H   0  0  0  0  0  0  0  0  0  0  0  0
    0.5960   11.0190    9.6260 H   0  0  0  0  0  0  0  0  0  0  0  0
   -0.2660   10.5410   11.1130 H   0  0  0  0  0  0  0  0  0  0  0  0
    1.4100    8.8720    7.7880 H   0  0  0  0  0  0  0  0  0  0  0  0
   -0.0500    9.8410    7.5080 H   0  0  0  0  0  0  0  0  0  0  0  0
   -1.2870    7.8320    6.8920 H   0  0  0  0  0  0  0  0  0  0  0  0
   -0.0120    6.7780    7.5010 H   0  0  0  0  0  0  0  0  0  0  0  0
    0.7480    6.7290    5.3070 H   0  0  0  0  0  0  0  0  0  0  0  0
   -2.0360    7.1390    4.3320 H   0  0  0  0  0  0  0  0  0  0  0  0
    1.6870    9.0610    6.5620 H   0  0  0  0  0  0  0  0  0  0  0  0
    1.6350    9.2950    4.9730 H   0  0  0  0  0  0  0  0  0  0  0  0
    2.0900    9.5500   10.2270 H   0  0  0  0  0  0  0  0  0  0  0  0
    2.2670    7.9550    9.4740 H   0  0  0  0  0  0  0  0  0  0  0  0
    1.7600    6.8200   11.5430 H   0  0  0  0  0  0  0  0  0  0  0  0
   -0.2480    8.6470   12.0900 H   0  0  0  0  0  0  0  0  0  0  0  0
    1.2080   10.5280   12.5990 H   0  0  0  0  0  0  0  0  0  0  0  0
    2.9800    8.6620   14.2570 H   0  0  0  0  0  0  0  0  0  0  0  0
    3.1430   11.2530   11.4450 H   0  0  0  0  0  0  0  0  0  0  0  0
    6.5700    9.8890   16.7390 H   0  0  0  0  0  0  0  0  0  0  0  0
    7.5830   13.2240   12.8720 H   0  0  0  0  0  0  0  0  0  0  0  0
    7.8610   13.6670   14.5570 H   0  0  0  0  0  0  0  0  0  0  0  0
    0.7090   10.8820   14.5730 H   0  0  0  0  0  0  0  0  0  0  0  0
   -0.5020    7.5410   13.8820 H   0  0  0  0  0  0  0  0  0  0  0  0
  1 30  1  0  0  0  0
  2  3  1  6  0  0  0
  2  1  1  0  0  0  0
  2 10  1  0  0  0  0
  4 34  1  0  0  0  0
  4  3  1  0  0  0  0
  5 35  1  6  0  0  0
  5  9  1  0  0  0  0
  5  4  1  0  0  0  0
  6  8  1  0  0  0  0
  6  5  1  0  0  0  0
  7  6  2  0  0  0  0
  9 37  1  0  0  0  0
 10 39  1  0  0  0  0
 10 11  1  0  0  0  0
 11 41  1  6  0  0  0
 11 15  1  0  0  0  0
 11 12  1  0  0  0  0
 12 42  1  6  0  0  0
 12 13  1  0  0  0  0
 12 27  1  0  0  0  0
 13 43  1  6  0  0  0
 13 14  1  0  0  0  0
 13 26  1  0  0  0  0
 14 44  1  1  0  0  0
 15 14  1  0  0  0  0
 16 14  1  0  0  0  0
 16 24  1  0  0  0  0
 17 18  2  0  0  0  0
 17 16  1  0  0  0  0
 18 19  1  0  0  0  0
 19 24  2  0  0  0  0
 19 20  1  0  0  0  0
 20 25  1  1  0  0  0
 20 21  1  0  0  0  0
 21 22  2  0  0  0  0
 22 46  1  0  0  0  0
 23 22  1  0  0  0  0
 24 23  1  0  0  0  0
 25 48  1  0  0  0  0
 26 49  1  0  0  0  0
 27 50  1  0  0  0  0
 28  1  1  0  0  0  0
 29  1  1  0  0  0  0
 31  3  1  0  0  0  0
 32  3  1  0  0  0  0
 33  4  1  0  0  0  0
 36  8  1  0  0  0  0
 38  9  1  0  0  0  0
 40 10  1  0  0  0  0
 45 17  1  0  0  0  0
 47 25  1  0  0  0  0
M  END
>  <Pose>
4

>  <Score>
-9.99

$$$$

 OpenBabel10152116503D

 50 52  0  0  1  0  0  0  0  0999 V2000
    0.8200   10.4890    9.8250 C   0  0  0  0  0  0  0  0  0  0  0  0
    0.8370    8.7130   10.1850 S   0  0  1  0  0  0  0  0  0  0  0  0
    1.5690    8.1720    8.6110 C   0  0  0  0  0  0  0  0  0  0  0  0
    0.5790    8.1780    7.4530 C   0  0  0  0  0  0  0  0  0  0  0  0
    1.1750    7.5000    6.2080 C   0  0  1  0  0  0  0  0  0  0  0  0
    0.1220    7.3340    5.0910 C   0  0  0  0  0  0  0  0  0  0  0  0
   -0.0970    8.1780    4.2300 O   0  0  0  0  0  0  0  0  0  0  0  0
   -0.5450    6.1580    5.1240 O   0  0  0  0  0  0  0  0  0  0  0  0
    2.2900    8.3330    5.7000 N   0  0  0  0  0  0  0  0  0  0  0  0
    2.3990    8.7280   11.1670 C   0  0  0  0  0  0  0  0  0  0  0  0
    2.2780    7.8920   12.4520 C   0  0  2  0  0  0  0  0  0  0  0  0
    1.0730    8.2760   13.3140 C   0  0  2  0  0  0  0  0  0  0  0  0
    1.6220    9.3510   14.2430 C   0  0  2  0  0  0  0  0  0  0  0  0
    3.0480    8.8510   14.4650 C   0  0  1  0  0  0  0  0  0  0  0  0
    3.4310    8.0920   13.3040 O   0  0  0  0  0  0  0  0  0  0  0  0
    4.0540    9.8640   14.7070 N   0  0  0  0  0  0  0  0  0  0  0  0
    4.6750   10.0790   15.9120 C   0  0  0  0  0  0  0  0  0  0  0  0
    5.5570   11.0540   15.8490 N   0  0  0  0  0  0  0  0  0  0  0  0
    5.4990   11.4980   14.5460 C   0  0  0  0  0  0  0  0  0  0  0  0
    6.1800   12.5210   13.8630 C   0  0  1  0  0  0  0  0  0  0  0  0
    5.9280   12.6950   12.5470 N   0  0  0  0  0  0  0  0  0  0  0  0
    5.0240   11.8900   11.9540 C   0  0  0  0  0  0  0  0  0  0  0  0
    4.3100   10.8890   12.5060 N   0  0  0  0  0  0  0  0  0  0  0  0
    4.5910   10.7510   13.8120 C   0  0  0  0  0  0  0  0  0  0  0  0
    7.0910   13.3550   14.4690 N   0  0  0  0  0  0  0  0  0  0  0  0
    0.8760    9.4190   15.4590 O   0  0  0  0  0  0  0  0  0  0  0  0
    0.6450    7.1790   14.1500 O   0  0  0  0  0  0  0  0  0  0  0  0
    0.0350   10.6960    9.0930 H   0  0  0  0  0  0  0  0  0  0  0  0
    1.7820   10.8270    9.4350 H   0  0  0  0  0  0  0  0  0  0  0  0
    0.5900   11.0300   10.7460 H   0  0  0  0  0  0  0  0  0  0  0  0
    1.8790    7.1430    8.7720 H   0  0  0  0  0  0  0  0  0  0  0  0
    2.4490    8.7760    8.3760 H   0  0  0  0  0  0  0  0  0  0  0  0
    0.3050    9.2130    7.2130 H   0  0  0  0  0  0  0  0  0  0  0  0
   -0.3450    7.6670    7.7540 H   0  0  0  0  0  0  0  0  0  0  0  0
    1.5910    6.5170    6.4560 H   0  0  0  0  0  0  0  0  0  0  0  0
   -1.3700    6.1340    4.6020 H   0  0  0  0  0  0  0  0  0  0  0  0
    2.6070    8.9260    6.4740 H   0  0  0  0  0  0  0  0  0  0  0  0
    1.9120    9.0040    5.0260 H   0  0  0  0  0  0  0  0  0  0  0  0
    2.5720    9.7790   11.4250 H   0  0  0  0  0  0  0  0  0  0  0  0
    3.2140    8.3900   10.5290 H   0  0  0  0  0  0  0  0  0  0  0  0
    2.2480    6.8270   12.1940 H   0  0  0  0  0  0  0  0  0  0  0  0
    0.1980    8.6050   12.7460 H   0  0  0  0  0  0  0  0  0  0  0  0
    1.5810   10.3300   13.7610 H   0  0  0  0  0  0  0  0  0  0  0  0
    3.0780    8.1630   15.3200 H   0  0  0  0  0  0  0  0  0  0  0  0
    4.4510    9.4950   16.7980 H   0  0  0  0  0  0  0  0  0  0  0  0
    4.8540   12.0700   10.8960 H   0  0  0  0  0  0  0  0  0  0  0  0
    7.2560   14.2710   14.0750 H   0  0  0  0  0  0  0  0  0  0  0  0
    7.6860   12.9670   15.1830 H   0  0  0  0  0  0  0  0  0  0  0  0
    0.1640    8.7480   15.3740 H   0  0  0  0  0  0  0  0  0  0  0  0
   -0.2820    7.3250   14.4210 H   0  0  0  0  0  0  0  0  0  0  0  0
  1  2  1  0  0  0  0
  1 30  1  0  0  0  0
  2  3  1  6  0  0  0
  2 10  1  0  0  0  0
  3 31  1  0  0  0  0
  4 34  1  0  0  0  0
  4  3  1  0  0  0  0
  5 35  1  1  0  0  0
  5  4  1  0  0  0  0
  6  8  1  0  0  0  0
  6  5  1  0  0  0  0
  7  6  2  0  0  0  0
  9  5  1  0  0  0  0
  9 37  1  0  0  0  0
 10 39  1  0  0  0  0
 10 11  1  0  0  0  0
 11 41  1  6  0  0  0
 11 15  1  0  0  0  0
 11 12  1  0  0  0  0
 12 42  1  6  0  0  0
 12 27  1  0  0  0  0
 12 13  1  0  0  0  0
 13 43  1  6  0  0  0
 13 14  1  0  0  0  0
 13 26  1  0  0  0  0
 14 16  1  0  0  0  0
 14 44  1  1  0  0  0
 15 14  1  0  0  0  0
 16 17  1  0  0  0  0
 17 45  1  0  0  0  0
 18 17  2  0  0  0  0
 19 18  1  0  0  0  0
 20 25  1  1  0  0  0
 20 19  1  0  0  0  0
 21 20  1  0  0  0  0
 22 23  1  0  0  0  0
 22 21  2  0  0  0  0
 23 24  1  0  0  0  0
 24 19  2  0  0  0  0
 24 16  1  0  0  0  0
 25 48  1  0  0  0  0
 27 50  1  0  0  0  0
 28  1  1  0  0  0  0
 29  1  1  0  0  0  0
 32  3  1  0  0  0  0
 33  4  1  0  0  0  0
 36  8  1  0  0  0  0
 38  9  1  0  0  0  0
 40 10  1  0  0  0  0
 46 22  1  0  0  0  0
 47 25  1  0  0  0  0
 49 26  1  0  0  0  0
M  END
>  <Pose>
3

>  <Score>
-9.88

$$$$

 OpenBabel10152116503D

 50 52  0  0  1  0  0  0  0  0999 V2000
   -0.5620    9.1770    9.1380 C   0  0  0  0  0  0  0  0  0  0  0  0
    0.5960    7.7860    9.0510 S   0  0  1  0  0  0  0  0  0  0  0  0
    1.3650    8.2320    7.4660 C   0  0  0  0  0  0  0  0  0  0  0  0
    0.3570    8.6590    6.4060 C   0  0  0  0  0  0  0  0  0  0  0  0
    0.0400    7.5040    5.4420 C   0  0  1  0  0  0  0  0  0  0  0  0
   -0.2200    8.0140    4.0080 C   0  0  0  0  0  0  0  0  0  0  0  0
   -0.5360    7.2880    3.0730 O   0  0  0  0  0  0  0  0  0  0  0  0
   -0.0840    9.3510    3.8590 O   0  0  0  0  0  0  0  0  0  0  0  0
    1.1910    6.5720    5.4200 N   0  0  0  0  0  0  0  0  0  0  0  0
    1.8810    8.5320   10.1450 C   0  0  0  0  0  0  0  0  0  0  0  0
    1.9120    7.8690   11.5310 C   0  0  2  0  0  0  0  0  0  0  0  0
    0.7740    8.3260   12.4480 C   0  0  2  0  0  0  0  0  0  0  0  0
    1.3590    9.5300   13.1750 C   0  0  2  0  0  0  0  0  0  0  0  0
    2.8190    9.1070   13.3230 C   0  0  1  0  0  0  0  0  0  0  0  0
    3.1270    8.2140   12.2370 O   0  0  0  0  0  0  0  0  0  0  0  0
    3.7990   10.1730   13.3360 N   0  0  0  0  0  0  0  0  0  0  0  0
    3.9660   11.0940   12.3320 C   0  0  0  0  0  0  0  0  0  0  0  0
    4.9190   11.9590   12.6070 N   0  0  0  0  0  0  0  0  0  0  0  0
    5.3990   11.5770   13.8400 C   0  0  0  0  0  0  0  0  0  0  0  0
    6.4210   12.0870   14.6590 C   0  0  1  0  0  0  0  0  0  0  0  0
    6.6360   11.5050   15.8590 N   0  0  0  0  0  0  0  0  0  0  0  0
    5.8700   10.4520   16.2090 C   0  0  0  0  0  0  0  0  0  0  0  0
    4.8740    9.8760   15.5070 N   0  0  0  0  0  0  0  0  0  0  0  0
    4.6950   10.4850   14.3240 C   0  0  0  0  0  0  0  0  0  0  0  0
    7.2160   13.1500   14.2980 N   0  0  0  0  0  0  0  0  0  0  0  0
    0.7240    9.7340   14.4380 O   0  0  0  0  0  0  0  0  0  0  0  0
    0.4700    7.3360   13.4540 O   0  0  0  0  0  0  0  0  0  0  0  0
   -1.3630    9.0200    8.4120 H   0  0  0  0  0  0  0  0  0  0  0  0
   -0.0620   10.1260    8.9320 H   0  0  0  0  0  0  0  0  0  0  0  0
   -0.9990    9.2060   10.1400 H   0  0  0  0  0  0  0  0  0  0  0  0
    1.8490    7.3260    7.1120 H   0  0  0  0  0  0  0  0  0  0  0  0
    2.1230    9.0050    7.6180 H   0  0  0  0  0  0  0  0  0  0  0  0
    0.7600    9.5090    5.8420 H   0  0  0  0  0  0  0  0  0  0  0  0
   -0.5640    9.0080    6.8910 H   0  0  0  0  0  0  0  0  0  0  0  0
   -0.8320    6.9350    5.7830 H   0  0  0  0  0  0  0  0  0  0  0  0
    0.1400    9.6480    2.9560 H   0  0  0  0  0  0  0  0  0  0  0  0
    1.6120    6.6250    4.4860 H   0  0  0  0  0  0  0  0  0  0  0  0
    0.8340    5.6140    5.4640 H   0  0  0  0  0  0  0  0  0  0  0  0
    1.6020    9.5870   10.2450 H   0  0  0  0  0  0  0  0  0  0  0  0
    2.8430    8.4760    9.6380 H   0  0  0  0  0  0  0  0  0  0  0  0
    1.9040    6.7790   11.4160 H   0  0  0  0  0  0  0  0  0  0  0  0
   -0.1610    8.5510   11.9280 H   0  0  0  0  0  0  0  0  0  0  0  0
    1.2330   10.4350   12.5780 H   0  0  0  0  0  0  0  0  0  0  0  0
    2.9550    8.5390   14.2520 H   0  0  0  0  0  0  0  0  0  0  0  0
    3.3650   11.0920   11.4290 H   0  0  0  0  0  0  0  0  0  0  0  0
    6.0820   10.0170   17.1810 H   0  0  0  0  0  0  0  0  0  0  0  0
    7.3240   13.3730   13.3190 H   0  0  0  0  0  0  0  0  0  0  0  0
    7.7980   13.5680   15.0070 H   0  0  0  0  0  0  0  0  0  0  0  0
    0.1430    8.9540   14.5750 H   0  0  0  0  0  0  0  0  0  0  0  0
   -0.4770    7.3930   13.6830 H   0  0  0  0  0  0  0  0  0  0  0  0
  1 30  1  0  0  0  0
  2  3  1  6  0  0  0
  2  1  1  0  0  0  0
  2 10  1  0  0  0  0
  3 32  1  0  0  0  0
  4 34  1  0  0  0  0
  4  3  1  0  0  0  0
  5 35  1  1  0  0  0
  5  4  1  0  0  0  0
  6  5  1  0  0  0  0
  7  6  2  0  0  0  0
  8  6  1  0  0  0  0
  9  5  1  0  0  0  0
  9 38  1  0  0  0  0
 10 39  1  0  0  0  0
 10 11  1  0  0  0  0
 11 41  1  6  0  0  0
 11 15  1  0  0  0  0
 11 12  1  0  0  0  0
 12 42  1  6  0  0  0
 12 13  1  0  0  0  0
 12 27  1  0  0  0  0
 13 43  1  6  0  0  0
 13 14  1  0  0  0  0
 13 26  1  0  0  0  0
 14 16  1  0  0  0  0
 14 44  1  1  0  0  0
 15 14  1  0  0  0  0
 16 24  1  0  0  0  0
 17 18  2  0  0  0  0
 17 16  1  0  0  0  0
 18 19  1  0  0  0  0
 19 24  2  0  0  0  0
 19 20  1  0  0  0  0
 20 25  1  6  0  0  0
 20 21  1  0  0  0  0
 21 22  2  0  0  0  0
 22 46  1  0  0  0  0
 23 22  1  0  0  0  0
 24 23  1  0  0  0  0
 25 48  1  0  0  0  0
 26 49  1  0  0  0  0
 27 50  1  0  0  0  0
 28  1  1  0  0  0  0
 29  1  1  0  0  0  0
 31  3  1  0  0  0  0
 33  4  1  0  0  0  0
 36  8  1  0  0  0  0
 37  9  1  0  0  0  0
 40 10  1  0  0  0  0
 45 17  1  0  0  0  0
 47 25  1  0  0  0  0
M  END
>  <Pose>
1

>  <Score>
-9.21

$$$$

 OpenBabel10152116503D

 50 52  0  0  1  0  0  0  0  0999 V2000
    3.6050    7.4850   12.7720 C   0  0  0  0  0  0  0  0  0  0  0  0
    2.8770    9.1380   12.9000 S   0  0  1  0  0  0  0  0  0  0  0  0
    4.4360   10.0580   13.0710 C   0  0  0  0  0  0  0  0  0  0  0  0
    4.5040   10.9000   14.3380 C   0  0  0  0  0  0  0  0  0  0  0  0
    5.9420   11.3650   14.6210 C   0  0  1  0  0  0  0  0  0  0  0  0
    6.3350   12.5700   13.7390 C   0  0  0  0  0  0  0  0  0  0  0  0
    6.0540   12.6660   12.5510 O   0  0  0  0  0  0  0  0  0  0  0  0
    7.0140   13.5400   14.3930 O   0  0  0  0  0  0  0  0  0  0  0  0
    6.0440   11.7580   16.0460 N   0  0  0  0  0  0  0  0  0  0  0  0
    2.6580    9.3980   11.0870 C   0  0  0  0  0  0  0  0  0  0  0  0
    1.4280   10.2650   10.7750 C   0  0  2  0  0  0  0  0  0  0  0  0
    0.1340    9.7290   11.3930 C   0  0  2  0  0  0  0  0  0  0  0  0
   -0.4260    8.8090   10.3160 C   0  0  2  0  0  0  0  0  0  0  0  0
   -0.0120    9.5510    9.0470 C   0  0  1  0  0  0  0  0  0  0  0  0
    1.1770   10.3040    9.3500 O   0  0  0  0  0  0  0  0  0  0  0  0
    0.2440    8.7340    7.8790 N   0  0  0  0  0  0  0  0  0  0  0  0
    1.4000    8.0260    7.6580 C   0  0  0  0  0  0  0  0  0  0  0  0
    1.3630    7.3600    6.5230 N   0  0  0  0  0  0  0  0  0  0  0  0
    0.1320    7.6560    5.9790 C   0  0  0  0  0  0  0  0  0  0  0  0
   -0.4910    7.2690    4.7810 C   0  0  2  0  0  0  0  0  0  0  0  0
   -1.7480    7.7040    4.5380 N   0  0  0  0  0  0  0  0  0  0  0  0
   -2.3370    8.5020    5.4500 C   0  0  0  0  0  0  0  0  0  0  0  0
   -1.8370    8.9420    6.6220 N   0  0  0  0  0  0  0  0  0  0  0  0
   -0.5900    8.4860    6.8220 C   0  0  0  0  0  0  0  0  0  0  0  0
    0.1140    6.4680    3.8400 N   0  0  0  0  0  0  0  0  0  0  0  0
   -1.8440    8.6780   10.4290 O   0  0  0  0  0  0  0  0  0  0  0  0
   -0.8360   10.7790   11.5930 O   0  0  0  0  0  0  0  0  0  0  0  0
    3.9760    7.1810   13.7540 H   0  0  0  0  0  0  0  0  0  0  0  0
    4.4250    7.4640   12.0490 H   0  0  0  0  0  0  0  0  0  0  0  0
    2.8270    6.7830   12.4600 H   0  0  0  0  0  0  0  0  0  0  0  0
    4.4670   10.7380   12.2230 H   0  0  0  0  0  0  0  0  0  0  0  0
    5.2860    9.3740   13.0090 H   0  0  0  0  0  0  0  0  0  0  0  0
    4.1330   10.3110   15.1870 H   0  0  0  0  0  0  0  0  0  0  0  0
    3.8400   11.7690   14.2410 H   0  0  0  0  0  0  0  0  0  0  0  0
    6.6590   10.5530   14.4560 H   0  0  0  0  0  0  0  0  0  0  0  0
    7.8630   13.2600   14.7870 H   0  0  0  0  0  0  0  0  0  0  0  0
    7.0410   11.8330   16.2730 H   0  0  0  0  0  0  0  0  0  0  0  0
    5.7280   10.9730   16.6220 H   0  0  0  0  0  0  0  0  0  0  0  0
    2.5220    8.3970   10.6630 H   0  0  0  0  0  0  0  0  0  0  0  0
    3.5760    9.8220   10.6830 H   0  0  0  0  0  0  0  0  0  0  0  0
    1.6150   11.2960   11.0970 H   0  0  0  0  0  0  0  0  0  0  0  0
    0.2680    9.2290   12.3560 H   0  0  0  0  0  0  0  0  0  0  0  0
    0.0170    7.8140   10.3940 H   0  0  0  0  0  0  0  0  0  0  0  0
   -0.7860   10.2760    8.7640 H   0  0  0  0  0  0  0  0  0  0  0  0
    2.2300    8.0270    8.3550 H   0  0  0  0  0  0  0  0  0  0  0  0
   -3.3460    8.8280    5.2100 H   0  0  0  0  0  0  0  0  0  0  0  0
   -0.0540    6.6470    2.8600 H   0  0  0  0  0  0  0  0  0  0  0  0
    0.5680    5.6260    4.1570 H   0  0  0  0  0  0  0  0  0  0  0  0
   -2.1690    8.5060    9.5180 H   0  0  0  0  0  0  0  0  0  0  0  0
   -0.3750   11.5910   11.8750 H   0  0  0  0  0  0  0  0  0  0  0  0
  1  2  1  0  0  0  0
  1 28  1  0  0  0  0
  2 10  1  6  0  0  0
  2  3  1  0  0  0  0
  3  4  1  0  0  0  0
  4  5  1  0  0  0  0
  4 33  1  0  0  0  0
  5 35  1  6  0  0  0
  5  9  1  0  0  0  0
  6  8  1  0  0  0  0
  6  5  1  0  0  0  0
  7  6  2  0  0  0  0
  8 36  1  0  0  0  0
  9 37  1  0  0  0  0
  9 38  1  0  0  0  0
 11 10  1  0  0  0  0
 11 41  1  1  0  0  0
 11 12  1  0  0  0  0
 12 27  1  0  0  0  0
 12 42  1  1  0  0  0
 13 43  1  1  0  0  0
 13 26  1  0  0  0  0
 13 12  1  0  0  0  0
 14 44  1  6  0  0  0
 14 15  1  0  0  0  0
 14 13  1  0  0  0  0
 15 11  1  0  0  0  0
 16 14  1  0  0  0  0
 17 16  1  0  0  0  0
 17 45  1  0  0  0  0
 18 17  2  0  0  0  0
 19 18  1  0  0  0  0
 19 24  2  0  0  0  0
 20 25  1  1  0  0  0
 20 19  1  0  0  0  0
 21 20  1  0  0  0  0
 21 22  2  0  0  0  0
 22 23  1  0  0  0  0
 23 24  1  0  0  0  0
 24 16  1  0  0  0  0
 25 48  1  0  0  0  0
 27 50  1  0  0  0  0
 29  1  1  0  0  0  0
 30  1  1  0  0  0  0
 31  3  1  0  0  0  0
 32  3  1  0  0  0  0
 34  4  1  0  0  0  0
 39 10  1  0  0  0  0
 40 10  1  0  0  0  0
 46 22  1  0  0  0  0
 47 25  1  0  0  0  0
 49 26  1  0  0  0  0
M  END
>  <Pose>
1

>  <Score>
-8.87

$$$$

 OpenBabel10152116503D

 50 52  0  0  1  0  0  0  0  0999 V2000
    1.0440   10.0680   13.2240 C   0  0  0  0  0  0  0  0  0  0  0  0
    1.9830   10.3590   11.7020 S   0  0  1  0  0  0  0  0  0  0  0  0
    3.6360   10.0600   12.3970 C   0  0  0  0  0  0  0  0  0  0  0  0
    3.7730   10.5160   13.8440 C   0  0  0  0  0  0  0  0  0  0  0  0
    5.2490   10.5760   14.2710 C   0  0  1  0  0  0  0  0  0  0  0  0
    5.7840   12.0250   14.2680 C   0  0  0  0  0  0  0  0  0  0  0  0
    5.0680   13.0160   14.2020 O   0  0  0  0  0  0  0  0  0  0  0  0
    7.1300   12.1220   14.3590 O   0  0  0  0  0  0  0  0  0  0  0  0
    5.3720   10.0200   15.6390 N   0  0  0  0  0  0  0  0  0  0  0  0
    1.7290    8.6770   10.9890 C   0  0  0  0  0  0  0  0  0  0  0  0
    0.3150    8.1420   11.2690 C   0  0  2  0  0  0  0  0  0  0  0  0
    0.2300    6.6130   11.2520 C   0  0  2  0  0  0  0  0  0  0  0  0
   -0.0940    6.2870    9.8000 C   0  0  2  0  0  0  0  0  0  0  0  0
   -0.9900    7.4650    9.4230 C   0  0  1  0  0  0  0  0  0  0  0  0
   -0.6110    8.5830   10.2470 O   0  0  0  0  0  0  0  0  0  0  0  0
   -0.9560    7.8820    8.0360 N   0  0  0  0  0  0  0  0  0  0  0  0
   -2.0650    8.1470    7.2720 C   0  0  0  0  0  0  0  0  0  0  0  0
   -1.7460    8.5180    6.0500 N   0  0  0  0  0  0  0  0  0  0  0  0
   -0.3690    8.4850    6.0170 C   0  0  0  0  0  0  0  0  0  0  0  0
    0.5610    8.7560    5.0000 C   0  0  2  0  0  0  0  0  0  0  0  0
    1.8780    8.6690    5.2900 N   0  0  0  0  0  0  0  0  0  0  0  0
    2.2370    8.3100    6.5390 C   0  0  0  0  0  0  0  0  0  0  0  0
    1.4390    8.0200    7.5860 N   0  0  0  0  0  0  0  0  0  0  0  0
    0.1420    8.1190    7.2530 C   0  0  0  0  0  0  0  0  0  0  0  0
    0.1980    9.1070    3.7200 N   0  0  0  0  0  0  0  0  0  0  0  0
   -0.7720    5.0340    9.6860 O   0  0  0  0  0  0  0  0  0  0  0  0
   -0.8760    6.1320   12.0460 O   0  0  0  0  0  0  0  0  0  0  0  0
    1.1930   10.9110   13.9020 H   0  0  0  0  0  0  0  0  0  0  0  0
    1.3570    9.1430   13.7150 H   0  0  0  0  0  0  0  0  0  0  0  0
   -0.0180   10.0050   12.9730 H   0  0  0  0  0  0  0  0  0  0  0  0
    4.3170   10.6600   11.7980 H   0  0  0  0  0  0  0  0  0  0  0  0
    3.9040    9.0060   12.2920 H   0  0  0  0  0  0  0  0  0  0  0  0
    3.2290    9.8230   14.4970 H   0  0  0  0  0  0  0  0  0  0  0  0
    3.3060   11.5020   13.9670 H   0  0  0  0  0  0  0  0  0  0  0  0
    5.8750    9.9630   13.6130 H   0  0  0  0  0  0  0  0  0  0  0  0
    7.4610   12.5730   15.1600 H   0  0  0  0  0  0  0  0  0  0  0  0
    4.9800   10.7120   16.2870 H   0  0  0  0  0  0  0  0  0  0  0  0
    6.3630    9.9960   15.8900 H   0  0  0  0  0  0  0  0  0  0  0  0
    2.4700    8.0370   11.4810 H   0  0  0  0  0  0  0  0  0  0  0  0
    1.9550    8.7120    9.9250 H   0  0  0  0  0  0  0  0  0  0  0  0
   -0.0460    8.5400   12.2240 H   0  0  0  0  0  0  0  0  0  0  0  0
    1.1290    6.1080   11.6140 H   0  0  0  0  0  0  0  0  0  0  0  0
    0.8200    6.2370    9.2050 H   0  0  0  0  0  0  0  0  0  0  0  0
   -2.0370    7.2350    9.6600 H   0  0  0  0  0  0  0  0  0  0  0  0
   -3.0750    8.0580    7.6540 H   0  0  0  0  0  0  0  0  0  0  0  0
    3.3060    8.2510    6.7240 H   0  0  0  0  0  0  0  0  0  0  0  0
   -0.1760   10.0310    3.5510 H   0  0  0  0  0  0  0  0  0  0  0  0
    0.1550    8.3800    3.0240 H   0  0  0  0  0  0  0  0  0  0  0  0
   -1.6380    5.2360    9.2690 H   0  0  0  0  0  0  0  0  0  0  0  0
   -0.8050    6.4980   12.9480 H   0  0  0  0  0  0  0  0  0  0  0  0
  1 29  1  0  0  0  0
  1 28  1  0  0  0  0
  2 10  1  6  0  0  0
  2  3  1  0  0  0  0
  2  1  1  0  0  0  0
  3  4  1  0  0  0  0
  4 34  1  0  0  0  0
  4  5  1  0  0  0  0
  4 33  1  0  0  0  0
  5 35  1  6  0  0  0
  5  9  1  0  0  0  0
  6  5  1  0  0  0  0
  6  8  1  0  0  0  0
  7  6  2  0  0  0  0
  8 36  1  0  0  0  0
  9 38  1  0  0  0  0
  9 37  1  0  0  0  0
 10 11  1  0  0  0  0
 10 39  1  0  0  0  0
 11 41  1  1  0  0  0
 12 11  1  0  0  0  0
 12 42  1  1  0  0  0
 12 27  1  0  0  0  0
 13 43  1  6  0  0  0
 13 12  1  0  0  0  0
 14 44  1  1  0  0  0
 14 13  1  0  0  0  0
 14 15  1  0  0  0  0
 15 11  1  0  0  0  0
 16 14  1  0  0  0  0
 17 45  1  0  0  0  0
 17 16  1  0  0  0  0
 18 17  2  0  0  0  0
 19 18  1  0  0  0  0
 19 24  2  0  0  0  0
 20 25  1  1  0  0  0
 20 21  1  0  0  0  0
 20 19  1  0  0  0  0
 21 22  2  0  0  0  0
 22 46  1  0  0  0  0
 22 23  1  0  0  0  0
 24 23  1  0  0  0  0
 24 16  1  0  0  0  0
 26 13  1  0  0  0  0
 27 50  1  0  0  0  0
 30  1  1  0  0  0  0
 31  3  1  0  0  0  0
 32  3  1  0  0  0  0
 40 10  1  0  0  0  0
 47 25  1  0  0  0  0
 48 25  1  0  0  0  0
 49 26  1  0  0  0  0
M  END
>  <Pose>
1

>  <Score>
-8.40

$$$$
