
 OpenBabel10152116493D

 30 31  0  0  1  0  0  0  0  0999 V2000
    1.3780    8.2190    6.9930 C   0  0  0  0  0  0  0  0  0  0  0  0
    0.0540    8.2100    6.7340 N   0  0  0  0  0  0  0  0  0  0  0  0
   -0.7960    8.5460    7.7300 C   0  0  2  0  0  0  0  0  0  0  0  0
   -0.2620    8.8890    8.9830 C   0  0  0  0  0  0  0  0  0  0  0  0
    1.1200    8.8510    9.1060 C   0  0  0  0  0  0  0  0  0  0  0  0
    2.0030    8.5230    8.1480 N   0  0  0  0  0  0  0  0  0  0  0  0
    1.3690    9.2160   10.4010 N   0  0  0  0  0  0  0  0  0  0  0  0
    0.1560    9.4620   10.9970 C   0  0  0  0  0  0  0  0  0  0  0  0
   -0.8500    9.2710   10.1720 N   0  0  0  0  0  0  0  0  0  0  0  0
    2.6360    9.3360   11.0860 C   0  0  0  0  0  0  0  0  0  0  0  0
    2.7800   10.4800   12.0850 C   0  0  0  0  0  0  0  0  0  0  0  0
    4.1200   10.4890   12.5950 O   0  0  0  0  0  0  0  0  0  0  0  0
    4.7970   11.7040   12.2260 C   0  0  0  0  0  0  0  0  0  0  0  0
    5.6480   12.2980   13.6940 P   0  0  0  0  0  0  0  0  0  0  0  0
    4.8520   13.1050   14.6640 O   0  0  0  0  0  0  0  0  0  0  0  0
    6.2920   10.9700   14.3300 O   0  0  0  0  0  0  0  0  0  0  0  0
    6.9580   13.0410   13.1440 O   0  0  0  0  0  0  0  0  0  0  0  0
   -2.1460    8.5330    7.4650 N   0  0  0  0  0  0  0  0  0  0  0  0
    2.0220    7.9460    6.1620 H   0  0  0  0  0  0  0  0  0  0  0  0
    0.0680    9.7750   12.0300 H   0  0  0  0  0  0  0  0  0  0  0  0
    3.4110    9.4240   10.3150 H   0  0  0  0  0  0  0  0  0  0  0  0
    2.8140    8.3820   11.6000 H   0  0  0  0  0  0  0  0  0  0  0  0
    2.0820   10.3410   12.9180 H   0  0  0  0  0  0  0  0  0  0  0  0
    2.5880   11.4450   11.6020 H   0  0  0  0  0  0  0  0  0  0  0  0
    4.0890   12.4630   11.8770 H   0  0  0  0  0  0  0  0  0  0  0  0
    5.5180   11.4760   11.4340 H   0  0  0  0  0  0  0  0  0  0  0  0
    7.2400   11.0990   14.5400 H   0  0  0  0  0  0  0  0  0  0  0  0
    7.4670   13.4300   13.8810 H   0  0  0  0  0  0  0  0  0  0  0  0
   -2.6660    7.6970    7.6760 H   0  0  0  0  0  0  0  0  0  0  0  0
   -2.5780    9.3560    7.0710 H   0  0  0  0  0  0  0  0  0  0  0  0
  1  6  1  0  0  0  0
  2  1  2  0  0  0  0
  2  3  1  0  0  0  0
  3 18  1  1  0  0  0
  3  4  1  0  0  0  0
  4  5  2  0  0  0  0
  4  9  1  0  0  0  0
  5  7  1  0  0  0  0
  6  5  1  0  0  0  0
  7  8  1  0  0  0  0
  7 10  1  0  0  0  0
  8 20  1  0  0  0  0
  9  8  2  0  0  0  0
 10 22  1  0  0  0  0
 10 11  1  0  0  0  0
 11 12  1  0  0  0  0
 11 23  1  0  0  0  0
 13 12  1  0  0  0  0
 13 14  1  0  0  0  0
 14 16  1  0  0  0  0
 14 15  2  0  0  0  0
 16 27  1  0  0  0  0
 17 14  1  0  0  0  0
 17 28  1  0  0  0  0
 18 29  1  0  0  0  0
 19  1  1  0  0  0  0
 21 10  1  0  0  0  0
 24 11  1  0  0  0  0
 25 13  1  0  0  0  0
 26 13  1  0  0  0  0
 30 18  1  0  0  0  0
M  END
>  <Pose>
2

>  <Score>
-7.91

$$$$

 OpenBabel10152116493D

 30 31  0  0  1  0  0  0  0  0999 V2000
    1.4670    7.8890    7.5100 C   0  0  0  0  0  0  0  0  0  0  0  0
    0.2010    8.0680    7.0810 N   0  0  0  0  0  0  0  0  0  0  0  0
   -0.6580    8.7410    7.8800 C   0  0  2  0  0  0  0  0  0  0  0  0
   -0.1900    9.2200    9.1160 C   0  0  0  0  0  0  0  0  0  0  0  0
    1.1360    8.9580    9.4270 C   0  0  0  0  0  0  0  0  0  0  0  0
    2.0250    8.2950    8.6680 N   0  0  0  0  0  0  0  0  0  0  0  0
    1.3260    9.5180   10.6620 N   0  0  0  0  0  0  0  0  0  0  0  0
    0.1350   10.0910   11.0370 C   0  0  0  0  0  0  0  0  0  0  0  0
   -0.8030    9.9270   10.1300 N   0  0  0  0  0  0  0  0  0  0  0  0
    2.5170    9.5390   11.4800 C   0  0  0  0  0  0  0  0  0  0  0  0
    2.5450   10.5280   12.6420 C   0  0  0  0  0  0  0  0  0  0  0  0
    3.7580   11.2890   12.5770 O   0  0  0  0  0  0  0  0  0  0  0  0
    4.6990   10.8300   13.5640 C   0  0  0  0  0  0  0  0  0  0  0  0
    5.8650   12.1700   13.8410 P   0  0  0  0  0  0  0  0  0  0  0  0
    6.6940   12.6030   12.6800 O   0  0  0  0  0  0  0  0  0  0  0  0
    4.9620   13.3430   14.4670 O   0  0  0  0  0  0  0  0  0  0  0  0
    6.7170   11.7230   15.1230 O   0  0  0  0  0  0  0  0  0  0  0  0
   -1.9500    8.9200    7.4430 N   0  0  0  0  0  0  0  0  0  0  0  0
    2.1210    7.3460    6.8330 H   0  0  0  0  0  0  0  0  0  0  0  0
    0.0110   10.6110   11.9800 H   0  0  0  0  0  0  0  0  0  0  0  0
    3.3630    9.7380   10.8100 H   0  0  0  0  0  0  0  0  0  0  0  0
    2.6580    8.5210   11.8660 H   0  0  0  0  0  0  0  0  0  0  0  0
    2.5120    9.9880   13.5950 H   0  0  0  0  0  0  0  0  0  0  0  0
    1.6980   11.2200   12.5830 H   0  0  0  0  0  0  0  0  0  0  0  0
    5.2350    9.9400   13.2190 H   0  0  0  0  0  0  0  0  0  0  0  0
    4.1560   10.6020   14.4860 H   0  0  0  0  0  0  0  0  0  0  0  0
    4.7640   14.0350   13.8030 H   0  0  0  0  0  0  0  0  0  0  0  0
    7.4920   12.3050   15.2420 H   0  0  0  0  0  0  0  0  0  0  0  0
   -2.6660    8.3140    7.8080 H   0  0  0  0  0  0  0  0  0  0  0  0
   -2.1450    9.6510    6.7740 H   0  0  0  0  0  0  0  0  0  0  0  0
  1  6  1  0  0  0  0
  2  1  2  0  0  0  0
  2  3  1  0  0  0  0
  3 18  1  1  0  0  0
  3  4  1  0  0  0  0
  4  5  2  0  0  0  0
  4  9  1  0  0  0  0
  5  7  1  0  0  0  0
  6  5  1  0  0  0  0
  7  8  1  0  0  0  0
  7 10  1  0  0  0  0
  8 20  1  0  0  0  0
  9  8  2  0  0  0  0
 10 22  1  0  0  0  0
 10 11  1  0  0  0  0
 11 23  1  0  0  0  0
 12 11  1  0  0  0  0
 12 13  1  0  0  0  0
 13 14  1  0  0  0  0
 13 26  1  0  0  0  0
 14 16  1  0  0  0  0
 14 17  1  0  0  0  0
 15 14  2  0  0  0  0
 17 28  1  0  0  0  0
 18 29  1  0  0  0  0
 19  1  1  0  0  0  0
 21 10  1  0  0  0  0
 24 11  1  0  0  0  0
 25 13  1  0  0  0  0
 27 16  1  0  0  0  0
 30 18  1  0  0  0  0
M  END
>  <Pose>
1

>  <Score>
-7.84

$$$$

 OpenBabel10152116493D

 30 31  0  0  1  0  0  0  0  0999 V2000
   -0.4870    6.3100    4.5800 C   0  0  0  0  0  0  0  0  0  0  0  0
   -0.3930    7.4190    3.8160 N   0  0  0  0  0  0  0  0  0  0  0  0
    0.0950    8.5460    4.3810 C   0  0  2  0  0  0  0  0  0  0  0  0
    0.4820    8.5080    5.7320 C   0  0  0  0  0  0  0  0  0  0  0  0
    0.3260    7.3000    6.3940 C   0  0  0  0  0  0  0  0  0  0  0  0
   -0.1550    6.1560    5.8770 N   0  0  0  0  0  0  0  0  0  0  0  0
    0.7630    7.5360    7.6680 N   0  0  0  0  0  0  0  0  0  0  0  0
    1.1660    8.8490    7.7250 C   0  0  0  0  0  0  0  0  0  0  0  0
    1.0060    9.4670    6.5750 N   0  0  0  0  0  0  0  0  0  0  0  0
    0.8170    6.6330    8.7960 C   0  0  0  0  0  0  0  0  0  0  0  0
    0.3170    7.1640   10.1360 C   0  0  0  0  0  0  0  0  0  0  0  0
    1.4410    7.5790   10.9220 O   0  0  0  0  0  0  0  0  0  0  0  0
    1.0060    8.1680   12.1620 C   0  0  0  0  0  0  0  0  0  0  0  0
    1.0410    9.9520   11.9370 P   0  0  0  0  0  0  0  0  0  0  0  0
    2.1280   10.5090   11.0810 O   0  0  0  0  0  0  0  0  0  0  0  0
   -0.4390   10.3040   11.4180 O   0  0  0  0  0  0  0  0  0  0  0  0
    0.9990   10.5590   13.4190 O   0  0  0  0  0  0  0  0  0  0  0  0
    0.1870    9.6770    3.6030 N   0  0  0  0  0  0  0  0  0  0  0  0
   -0.8820    5.4290    4.0820 H   0  0  0  0  0  0  0  0  0  0  0  0
    1.5630    9.2960    8.6280 H   0  0  0  0  0  0  0  0  0  0  0  0
    1.8600    6.3080    8.8970 H   0  0  0  0  0  0  0  0  0  0  0  0
    0.2380    5.7420    8.5200 H   0  0  0  0  0  0  0  0  0  0  0  0
   -0.2240    6.3770   10.6740 H   0  0  0  0  0  0  0  0  0  0  0  0
   -0.3420    8.0280    9.9910 H   0  0  0  0  0  0  0  0  0  0  0  0
    1.6650    7.8870   12.9890 H   0  0  0  0  0  0  0  0  0  0  0  0
   -0.0150    7.8310   12.3690 H   0  0  0  0  0  0  0  0  0  0  0  0
   -0.7360   11.1760   11.7510 H   0  0  0  0  0  0  0  0  0  0  0  0
    0.7910   11.5130   13.3950 H   0  0  0  0  0  0  0  0  0  0  0  0
    0.4320    9.5710    2.6320 H   0  0  0  0  0  0  0  0  0  0  0  0
    0.0070   10.5780    4.0220 H   0  0  0  0  0  0  0  0  0  0  0  0
  1  6  1  0  0  0  0
  2  3  1  0  0  0  0
  2  1  2  0  0  0  0
  3 18  1  1  0  0  0
  3  4  1  0  0  0  0
  4  5  2  0  0  0  0
  4  9  1  0  0  0  0
  5  7  1  0  0  0  0
  6  5  1  0  0  0  0
  7  8  1  0  0  0  0
  7 10  1  0  0  0  0
  8 20  1  0  0  0  0
  9  8  2  0  0  0  0
 10 21  1  0  0  0  0
 10 11  1  0  0  0  0
 11 23  1  0  0  0  0
 11 12  1  0  0  0  0
 12 13  1  0  0  0  0
 13 26  1  0  0  0  0
 13 25  1  0  0  0  0
 14 13  1  0  0  0  0
 14 17  1  0  0  0  0
 15 14  2  0  0  0  0
 16 27  1  0  0  0  0
 16 14  1  0  0  0  0
 18 30  1  0  0  0  0
 19  1  1  0  0  0  0
 22 10  1  0  0  0  0
 24 11  1  0  0  0  0
 28 17  1  0  0  0  0
 29 18  1  0  0  0  0
M  END
>  <Pose>
1

>  <Score>
-7.72

$$$$

 OpenBabel10152116493D

 30 31  0  0  1  0  0  0  0  0999 V2000
    5.2270   12.1270   11.9050 C   0  0  0  0  0  0  0  0  0  0  0  0
    6.1940   12.6070   12.7140 N   0  0  0  0  0  0  0  0  0  0  0  0
    6.2370   12.1690   13.9920 C   0  0  2  0  0  0  0  0  0  0  0  0
    5.2750   11.2340   14.4150 C   0  0  0  0  0  0  0  0  0  0  0  0
    4.3380   10.8320   13.4740 C   0  0  0  0  0  0  0  0  0  0  0  0
    4.2550   11.2400   12.1970 N   0  0  0  0  0  0  0  0  0  0  0  0
    3.5340    9.9440   14.1350 N   0  0  0  0  0  0  0  0  0  0  0  0
    4.0100    9.8390   15.4190 C   0  0  0  0  0  0  0  0  0  0  0  0
    5.0580   10.6070   15.6250 N   0  0  0  0  0  0  0  0  0  0  0  0
    2.3830    9.2180   13.6460 C   0  0  0  0  0  0  0  0  0  0  0  0
    1.0450    9.9540   13.6500 C   0  0  0  0  0  0  0  0  0  0  0  0
    0.7960   10.4740   12.3370 O   0  0  0  0  0  0  0  0  0  0  0  0
    0.5540    9.4040   11.4040 C   0  0  0  0  0  0  0  0  0  0  0  0
   -0.2210   10.1360    9.9560 P   0  0  0  0  0  0  0  0  0  0  0  0
    0.6740   10.5410    8.8350 O   0  0  0  0  0  0  0  0  0  0  0  0
   -1.3420    9.0640    9.5360 O   0  0  0  0  0  0  0  0  0  0  0  0
   -1.1330   11.3240   10.5280 O   0  0  0  0  0  0  0  0  0  0  0  0
    7.2200   12.6610   14.8180 N   0  0  0  0  0  0  0  0  0  0  0  0
    5.2350   12.5060   10.8870 H   0  0  0  0  0  0  0  0  0  0  0  0
    3.5530    9.1910   16.1580 H   0  0  0  0  0  0  0  0  0  0  0  0
    2.3000    8.3050   14.2480 H   0  0  0  0  0  0  0  0  0  0  0  0
    2.6170    8.8980   12.6230 H   0  0  0  0  0  0  0  0  0  0  0  0
    1.0760   10.7850   14.3630 H   0  0  0  0  0  0  0  0  0  0  0  0
    0.2280    9.2730   13.9130 H   0  0  0  0  0  0  0  0  0  0  0  0
   -0.1070    8.6450   11.8330 H   0  0  0  0  0  0  0  0  0  0  0  0
    1.5140    8.9520   11.1340 H   0  0  0  0  0  0  0  0  0  0  0  0
   -2.2290    9.3330    9.8510 H   0  0  0  0  0  0  0  0  0  0  0  0
   -0.6920   11.7660   11.2790 H   0  0  0  0  0  0  0  0  0  0  0  0
    7.2960   12.2850   15.7490 H   0  0  0  0  0  0  0  0  0  0  0  0
    7.8380   13.3810   14.4720 H   0  0  0  0  0  0  0  0  0  0  0  0
  1  6  1  0  0  0  0
  1  2  2  0  0  0  0
  2  3  1  0  0  0  0
  3  4  1  0  0  0  0
  3 18  1  1  0  0  0
  4  9  1  0  0  0  0
  5  7  1  0  0  0  0
  5  4  2  0  0  0  0
  6  5  1  0  0  0  0
  7  8  1  0  0  0  0
  8  9  2  0  0  0  0
  8 20  1  0  0  0  0
 10 11  1  0  0  0  0
 10  7  1  0  0  0  0
 10 21  1  0  0  0  0
 11 24  1  0  0  0  0
 11 23  1  0  0  0  0
 12 11  1  0  0  0  0
 13 25  1  0  0  0  0
 13 12  1  0  0  0  0
 14 17  1  0  0  0  0
 14 13  1  0  0  0  0
 15 14  2  0  0  0  0
 16 27  1  0  0  0  0
 16 14  1  0  0  0  0
 17 28  1  0  0  0  0
 18 29  1  0  0  0  0
 19  1  1  0  0  0  0
 22 10  1  0  0  0  0
 26 13  1  0  0  0  0
 30 18  1  0  0  0  0
M  END
>  <Pose>
1

>  <Score>
-7.38

$$$$

 OpenBabel10152116493D

 30 31  0  0  1  0  0  0  0  0999 V2000
    5.1230   10.6600   15.9470 C   0  0  0  0  0  0  0  0  0  0  0  0
    5.9930   11.6820   15.8120 N   0  0  0  0  0  0  0  0  0  0  0  0
    6.1200   12.2590   14.5960 C   0  0  2  0  0  0  0  0  0  0  0  0
    5.3400   11.7690   13.5340 C   0  0  0  0  0  0  0  0  0  0  0  0
    4.4910   10.7100   13.8190 C   0  0  0  0  0  0  0  0  0  0  0  0
    4.3310   10.1040   15.0080 N   0  0  0  0  0  0  0  0  0  0  0  0
    3.8670   10.4300   12.6340 N   0  0  0  0  0  0  0  0  0  0  0  0
    4.3470   11.3160   11.7000 C   0  0  0  0  0  0  0  0  0  0  0  0
    5.2410   12.1370   12.2080 N   0  0  0  0  0  0  0  0  0  0  0  0
    2.8850    9.4110   12.3390 C   0  0  0  0  0  0  0  0  0  0  0  0
    1.5900    9.8660   11.6730 C   0  0  0  0  0  0  0  0  0  0  0  0
    1.7310    9.7480   10.2510 O   0  0  0  0  0  0  0  0  0  0  0  0
    1.5230    8.3860    9.8310 C   0  0  0  0  0  0  0  0  0  0  0  0
    0.9550    8.4440    8.1260 P   0  0  0  0  0  0  0  0  0  0  0  0
   -0.3690    7.8260    7.8270 O   0  0  0  0  0  0  0  0  0  0  0  0
    1.0440   10.0030    7.7420 O   0  0  0  0  0  0  0  0  0  0  0  0
    2.1660    7.8470    7.2630 O   0  0  0  0  0  0  0  0  0  0  0  0
    7.0100   13.2990   14.4590 N   0  0  0  0  0  0  0  0  0  0  0  0
    5.0520   10.2300   16.9420 H   0  0  0  0  0  0  0  0  0  0  0  0
    4.0110   11.3150   10.6700 H   0  0  0  0  0  0  0  0  0  0  0  0
    2.6520    8.9070   13.2860 H   0  0  0  0  0  0  0  0  0  0  0  0
    3.3780    8.6660   11.7020 H   0  0  0  0  0  0  0  0  0  0  0  0
    1.3850   10.9120   11.9260 H   0  0  0  0  0  0  0  0  0  0  0  0
    0.7480    9.2400   11.9900 H   0  0  0  0  0  0  0  0  0  0  0  0
    0.7730    7.8890   10.4530 H   0  0  0  0  0  0  0  0  0  0  0  0
    2.4750    7.8510    9.8970 H   0  0  0  0  0  0  0  0  0  0  0  0
    1.9190   10.2280    7.3650 H   0  0  0  0  0  0  0  0  0  0  0  0
    2.8320    7.4320    7.8450 H   0  0  0  0  0  0  0  0  0  0  0  0
    7.1340   13.7040   13.5450 H   0  0  0  0  0  0  0  0  0  0  0  0
    7.5110   13.6290   15.2710 H   0  0  0  0  0  0  0  0  0  0  0  0
  1 19  1  0  0  0  0
  2  1  2  0  0  0  0
  3 18  1  6  0  0  0
  3  2  1  0  0  0  0
  4  5  2  0  0  0  0
  4  3  1  0  0  0  0
  5  6  1  0  0  0  0
  6  1  1  0  0  0  0
  7  5  1  0  0  0  0
  8  9  2  0  0  0  0
  8  7  1  0  0  0  0
  9  4  1  0  0  0  0
 10  7  1  0  0  0  0
 10 21  1  0  0  0  0
 11 23  1  0  0  0  0
 11 24  1  0  0  0  0
 11 10  1  0  0  0  0
 12 11  1  0  0  0  0
 13 26  1  0  0  0  0
 13 12  1  0  0  0  0
 13 25  1  0  0  0  0
 14 13  1  0  0  0  0
 15 14  2  0  0  0  0
 16 14  1  0  0  0  0
 17 28  1  0  0  0  0
 17 14  1  0  0  0  0
 18 30  1  0  0  0  0
 20  8  1  0  0  0  0
 22 10  1  0  0  0  0
 27 16  1  0  0  0  0
 29 18  1  0  0  0  0
M  END
>  <Pose>
1

>  <Score>
-7.36

$$$$

 OpenBabel10152116493D

 30 31  0  0  1  0  0  0  0  0999 V2000
   -2.3250    8.5530    5.5490 C   0  0  0  0  0  0  0  0  0  0  0  0
   -1.8160    8.1890    4.3540 N   0  0  0  0  0  0  0  0  0  0  0  0
   -0.5070    7.8560    4.2900 C   0  0  2  0  0  0  0  0  0  0  0  0
    0.2580    7.9040    5.4690 C   0  0  0  0  0  0  0  0  0  0  0  0
   -0.3990    8.3000    6.6240 C   0  0  0  0  0  0  0  0  0  0  0  0
   -1.6940    8.6410    6.7370 N   0  0  0  0  0  0  0  0  0  0  0  0
    0.5570    8.2670    7.6030 N   0  0  0  0  0  0  0  0  0  0  0  0
    1.7280    7.8530    7.0150 C   0  0  0  0  0  0  0  0  0  0  0  0
    1.5850    7.6290    5.7270 N   0  0  0  0  0  0  0  0  0  0  0  0
    0.4380    8.5950    9.0060 C   0  0  0  0  0  0  0  0  0  0  0  0
   -0.5400    7.7640    9.8320 C   0  0  0  0  0  0  0  0  0  0  0  0
   -0.3850    8.1030   11.2170 O   0  0  0  0  0  0  0  0  0  0  0  0
    0.9960    8.3700   11.5230 C   0  0  0  0  0  0  0  0  0  0  0  0
    1.0540    9.9770   12.3280 P   0  0  0  0  0  0  0  0  0  0  0  0
    2.2820   10.7980   12.1240 O   0  0  0  0  0  0  0  0  0  0  0  0
   -0.2980   10.7000   11.8440 O   0  0  0  0  0  0  0  0  0  0  0  0
    0.7110    9.6840   13.8660 O   0  0  0  0  0  0  0  0  0  0  0  0
    0.0130    7.4890    3.0710 N   0  0  0  0  0  0  0  0  0  0  0  0
   -3.3810    8.8080    5.5520 H   0  0  0  0  0  0  0  0  0  0  0  0
    2.6490    7.7360    7.5730 H   0  0  0  0  0  0  0  0  0  0  0  0
    0.1590    9.6550    9.0650 H   0  0  0  0  0  0  0  0  0  0  0  0
    1.4420    8.5110    9.4400 H   0  0  0  0  0  0  0  0  0  0  0  0
   -0.3310    6.6970    9.7000 H   0  0  0  0  0  0  0  0  0  0  0  0
   -1.5750    7.9750    9.5380 H   0  0  0  0  0  0  0  0  0  0  0  0
    1.6080    8.3900   10.6150 H   0  0  0  0  0  0  0  0  0  0  0  0
    1.3610    7.5920   12.2000 H   0  0  0  0  0  0  0  0  0  0  0  0
   -0.4080   11.5730   12.2720 H   0  0  0  0  0  0  0  0  0  0  0  0
    0.4750   10.5110   14.3300 H   0  0  0  0  0  0  0  0  0  0  0  0
    0.0290    8.1730    2.3320 H   0  0  0  0  0  0  0  0  0  0  0  0
    0.3640    6.5500    2.9490 H   0  0  0  0  0  0  0  0  0  0  0  0
  1 19  1  0  0  0  0
  1  6  1  0  0  0  0
  2  1  2  0  0  0  0
  3 18  1  6  0  0  0
  3  2  1  0  0  0  0
  3  4  1  0  0  0  0
  4  9  1  0  0  0  0
  4  5  2  0  0  0  0
  5  6  1  0  0  0  0
  5  7  1  0  0  0  0
  7 10  1  0  0  0  0
  8 20  1  0  0  0  0
  8  7  1  0  0  0  0
  9  8  2  0  0  0  0
 10 21  1  0  0  0  0
 10 22  1  0  0  0  0
 10 11  1  0  0  0  0
 11 12  1  0  0  0  0
 12 13  1  0  0  0  0
 13 26  1  0  0  0  0
 13 14  1  0  0  0  0
 14 17  1  0  0  0  0
 15 14  2  0  0  0  0
 16 27  1  0  0  0  0
 16 14  1  0  0  0  0
 17 28  1  0  0  0  0
 23 11  1  0  0  0  0
 24 11  1  0  0  0  0
 25 13  1  0  0  0  0
 29 18  1  0  0  0  0
 30 18  1  0  0  0  0
M  END
>  <Pose>
1

>  <Score>
-7.34

$$$$

 OpenBabel10152116493D

 30 31  0  0  1  0  0  0  0  0999 V2000
   -0.2150    6.2240    4.0070 C   0  0  0  0  0  0  0  0  0  0  0  0
   -0.3000    7.4090    3.3690 N   0  0  0  0  0  0  0  0  0  0  0  0
   -0.0990    8.5390    4.0840 C   0  0  2  0  0  0  0  0  0  0  0  0
    0.1890    8.4230    5.4550 C   0  0  0  0  0  0  0  0  0  0  0  0
    0.2420    7.1400    5.9780 C   0  0  0  0  0  0  0  0  0  0  0  0
    0.0490    5.9900    5.3090 N   0  0  0  0  0  0  0  0  0  0  0  0
    0.5280    7.3100    7.3050 N   0  0  0  0  0  0  0  0  0  0  0  0
    0.6430    8.6610    7.5270 C   0  0  0  0  0  0  0  0  0  0  0  0
    0.4410    9.3630    6.4340 N   0  0  0  0  0  0  0  0  0  0  0  0
    0.6880    6.3120    8.3380 C   0  0  0  0  0  0  0  0  0  0  0  0
   -0.4660    6.1390    9.3220 C   0  0  0  0  0  0  0  0  0  0  0  0
   -0.5900    7.3310   10.1090 O   0  0  0  0  0  0  0  0  0  0  0  0
    0.6790    7.6950   10.6830 C   0  0  0  0  0  0  0  0  0  0  0  0
    0.5560    9.4200   11.1760 P   0  0  0  0  0  0  0  0  0  0  0  0
    1.5890   10.3560   10.6450 O   0  0  0  0  0  0  0  0  0  0  0  0
   -0.9490    9.8260   10.7860 O   0  0  0  0  0  0  0  0  0  0  0  0
    0.4600    9.3900   12.7760 O   0  0  0  0  0  0  0  0  0  0  0  0
   -0.1900    9.7470    3.4330 N   0  0  0  0  0  0  0  0  0  0  0  0
   -0.3800    5.3450    3.3910 H   0  0  0  0  0  0  0  0  0  0  0  0
    0.8730    9.0720    8.5030 H   0  0  0  0  0  0  0  0  0  0  0  0
    1.6040    6.5640    8.8880 H   0  0  0  0  0  0  0  0  0  0  0  0
    0.8810    5.3570    7.8330 H   0  0  0  0  0  0  0  0  0  0  0  0
   -0.2680    5.2910    9.9870 H   0  0  0  0  0  0  0  0  0  0  0  0
   -1.4090    5.9760    8.7890 H   0  0  0  0  0  0  0  0  0  0  0  0
    1.4920    7.5750    9.9600 H   0  0  0  0  0  0  0  0  0  0  0  0
    0.8620    7.0620   11.5570 H   0  0  0  0  0  0  0  0  0  0  0  0
   -1.3650    9.1490   10.2140 H   0  0  0  0  0  0  0  0  0  0  0  0
   -0.2080    8.7410   13.0680 H   0  0  0  0  0  0  0  0  0  0  0  0
   -0.1870    9.7490    2.4260 H   0  0  0  0  0  0  0  0  0  0  0  0
   -0.2570   10.5950    3.9780 H   0  0  0  0  0  0  0  0  0  0  0  0
  1  6  1  0  0  0  0
  2  1  2  0  0  0  0
  2  3  1  0  0  0  0
  3 18  1  1  0  0  0
  3  4  1  0  0  0  0
  4  5  2  0  0  0  0
  4  9  1  0  0  0  0
  5  7  1  0  0  0  0
  6  5  1  0  0  0  0
  7  8  1  0  0  0  0
  7 10  1  0  0  0  0
  8 20  1  0  0  0  0
  9  8  2  0  0  0  0
 10 21  1  0  0  0  0
 10 11  1  0  0  0  0
 11 23  1  0  0  0  0
 11 12  1  0  0  0  0
 12 13  1  0  0  0  0
 13 14  1  0  0  0  0
 13 26  1  0  0  0  0
 14 17  1  0  0  0  0
 15 14  2  0  0  0  0
 16 14  1  0  0  0  0
 17 28  1  0  0  0  0
 18 30  1  0  0  0  0
 19  1  1  0  0  0  0
 22 10  1  0  0  0  0
 24 11  1  0  0  0  0
 25 13  1  0  0  0  0
 27 16  1  0  0  0  0
 29 18  1  0  0  0  0
M  END
>  <Pose>
1

>  <Score>
-7.28

$$$$

 OpenBabel10152116493D

 30 31  0  0  1  0  0  0  0  0999 V2000
    5.2350   11.8030   12.0130 C   0  0  0  0  0  0  0  0  0  0  0  0
    6.0780   12.6450   12.6450 N   0  0  0  0  0  0  0  0  0  0  0  0
    6.2810   12.4730   13.9710 C   0  0  2  0  0  0  0  0  0  0  0  0
    5.6060   11.4270   14.6240 C   0  0  0  0  0  0  0  0  0  0  0  0
    4.7670   10.6430   13.8470 C   0  0  0  0  0  0  0  0  0  0  0  0
    4.5330   10.7750   12.5310 N   0  0  0  0  0  0  0  0  0  0  0  0
    4.2410    9.7230   14.7130 N   0  0  0  0  0  0  0  0  0  0  0  0
    4.7770    9.9760   15.9530 C   0  0  0  0  0  0  0  0  0  0  0  0
    5.6020   11.0010   15.9370 N   0  0  0  0  0  0  0  0  0  0  0  0
    3.2950    8.6620   14.4530 C   0  0  0  0  0  0  0  0  0  0  0  0
    2.7040    8.5880   13.0470 C   0  0  0  0  0  0  0  0  0  0  0  0
    1.4060    9.1960   13.0540 O   0  0  0  0  0  0  0  0  0  0  0  0
    1.3750   10.3400   12.1800 C   0  0  0  0  0  0  0  0  0  0  0  0
    0.0910   10.0330   10.9600 P   0  0  0  0  0  0  0  0  0  0  0  0
   -0.4000    8.6310   10.8240 O   0  0  0  0  0  0  0  0  0  0  0  0
   -1.0600   11.0890   11.3380 O   0  0  0  0  0  0  0  0  0  0  0  0
    0.6510   10.6650    9.5970 O   0  0  0  0  0  0  0  0  0  0  0  0
    7.1380   13.3340   14.6160 N   0  0  0  0  0  0  0  0  0  0  0  0
    5.1070   11.9780   10.9490 H   0  0  0  0  0  0  0  0  0  0  0  0
    4.5300    9.3850   16.8260 H   0  0  0  0  0  0  0  0  0  0  0  0
    2.4840    8.7680   15.1850 H   0  0  0  0  0  0  0  0  0  0  0  0
    3.8020    7.7170   14.6830 H   0  0  0  0  0  0  0  0  0  0  0  0
    2.6070    7.5420   12.7360 H   0  0  0  0  0  0  0  0  0  0  0  0
    3.3350    9.1270   12.3310 H   0  0  0  0  0  0  0  0  0  0  0  0
    2.3370   10.4800   11.6760 H   0  0  0  0  0  0  0  0  0  0  0  0
    1.1330   11.2270   12.7730 H   0  0  0  0  0  0  0  0  0  0  0  0
   -0.6880   11.9800   11.4990 H   0  0  0  0  0  0  0  0  0  0  0  0
    0.4140   11.6100    9.5340 H   0  0  0  0  0  0  0  0  0  0  0  0
    7.5060   13.0590   15.5120 H   0  0  0  0  0  0  0  0  0  0  0  0
    7.3760   14.2120   14.1770 H   0  0  0  0  0  0  0  0  0  0  0  0
  1  6  1  0  0  0  0
  1  2  2  0  0  0  0
  2  3  1  0  0  0  0
  3 18  1  1  0  0  0
  3  4  1  0  0  0  0
  4  9  1  0  0  0  0
  5  4  2  0  0  0  0
  5  7  1  0  0  0  0
  6  5  1  0  0  0  0
  7  8  1  0  0  0  0
  8 20  1  0  0  0  0
  9  8  2  0  0  0  0
 10 22  1  0  0  0  0
 10  7  1  0  0  0  0
 10 21  1  0  0  0  0
 11 12  1  0  0  0  0
 11 10  1  0  0  0  0
 13 26  1  0  0  0  0
 13 12  1  0  0  0  0
 14 16  1  0  0  0  0
 14 13  1  0  0  0  0
 15 14  2  0  0  0  0
 16 27  1  0  0  0  0
 17 14  1  0  0  0  0
 18 29  1  0  0  0  0
 19  1  1  0  0  0  0
 23 11  1  0  0  0  0
 24 11  1  0  0  0  0
 25 13  1  0  0  0  0
 28 17  1  0  0  0  0
 30 18  1  0  0  0  0
M  END
>  <Pose>
1

>  <Score>
-7.26

$$$$

 OpenBabel10152116493D

 30 31  0  0  1  0  0  0  0  0999 V2000
    5.6230   10.8750   15.9570 C   0  0  0  0  0  0  0  0  0  0  0  0
    6.5790   11.7680   15.6300 N   0  0  0  0  0  0  0  0  0  0  0  0
    6.6050   12.2470   14.3660 C   0  0  2  0  0  0  0  0  0  0  0  0
    5.6340   11.7930   13.4560 C   0  0  0  0  0  0  0  0  0  0  0  0
    4.7140   10.8700   13.9310 C   0  0  0  0  0  0  0  0  0  0  0  0
    4.6500   10.3650   15.1750 N   0  0  0  0  0  0  0  0  0  0  0  0
    3.9040   10.5960   12.8620 N   0  0  0  0  0  0  0  0  0  0  0  0
    4.3510   11.3540   11.8070 C   0  0  0  0  0  0  0  0  0  0  0  0
    5.3960   12.0850   12.1280 N   0  0  0  0  0  0  0  0  0  0  0  0
    2.7790    9.6930   12.7790 C   0  0  0  0  0  0  0  0  0  0  0  0
    1.8310    9.8710   11.5960 C   0  0  0  0  0  0  0  0  0  0  0  0
    2.2680    9.0330   10.5190 O   0  0  0  0  0  0  0  0  0  0  0  0
    1.1590    8.3050    9.9590 C   0  0  0  0  0  0  0  0  0  0  0  0
    0.9920    8.8350    8.2490 P   0  0  0  0  0  0  0  0  0  0  0  0
    1.0920   10.2970    7.9760 O   0  0  0  0  0  0  0  0  0  0  0  0
    2.0830    7.9530    7.4640 O   0  0  0  0  0  0  0  0  0  0  0  0
   -0.3710    8.1640    7.7370 O   0  0  0  0  0  0  0  0  0  0  0  0
    7.5820   13.1550   14.0320 N   0  0  0  0  0  0  0  0  0  0  0  0
    5.6410   10.5210   16.9840 H   0  0  0  0  0  0  0  0  0  0  0  0
    3.8790   11.3300   10.8320 H   0  0  0  0  0  0  0  0  0  0  0  0
    2.2170    9.7930   13.7170 H   0  0  0  0  0  0  0  0  0  0  0  0
    3.1870    8.6740   12.7670 H   0  0  0  0  0  0  0  0  0  0  0  0
    1.8390   10.9150   11.2630 H   0  0  0  0  0  0  0  0  0  0  0  0
    0.8100    9.5800   11.8690 H   0  0  0  0  0  0  0  0  0  0  0  0
    0.2320    8.5130   10.5030 H   0  0  0  0  0  0  0  0  0  0  0  0
    1.3850    7.2350   10.0060 H   0  0  0  0  0  0  0  0  0  0  0  0
    2.7660    7.6060    8.0730 H   0  0  0  0  0  0  0  0  0  0  0  0
   -0.9790    8.8440    7.3870 H   0  0  0  0  0  0  0  0  0  0  0  0
    7.9590   13.7400   14.7600 H   0  0  0  0  0  0  0  0  0  0  0  0
    7.8960   13.2100   13.0740 H   0  0  0  0  0  0  0  0  0  0  0  0
  1 19  1  0  0  0  0
  2  1  2  0  0  0  0
  3 18  1  6  0  0  0
  3  2  1  0  0  0  0
  4  5  2  0  0  0  0
  4  3  1  0  0  0  0
  5  6  1  0  0  0  0
  6  1  1  0  0  0  0
  7  5  1  0  0  0  0
  8  9  2  0  0  0  0
  8  7  1  0  0  0  0
  9  4  1  0  0  0  0
 10  7  1  0  0  0  0
 10 21  1  0  0  0  0
 11 24  1  0  0  0  0
 11 10  1  0  0  0  0
 12 11  1  0  0  0  0
 13 26  1  0  0  0  0
 13 25  1  0  0  0  0
 13 12  1  0  0  0  0
 14 13  1  0  0  0  0
 15 14  2  0  0  0  0
 16 27  1  0  0  0  0
 16 14  1  0  0  0  0
 17 14  1  0  0  0  0
 18 29  1  0  0  0  0
 20  8  1  0  0  0  0
 22 10  1  0  0  0  0
 23 11  1  0  0  0  0
 28 17  1  0  0  0  0
 30 18  1  0  0  0  0
M  END
>  <Pose>
1

>  <Score>
-7.17

$$$$
