
 OpenBabel10152116493D

 32 34  0  0  1  0  0  0  0  0999 V2000
    1.9250    8.5040    5.7070 C   0  0  0  0  0  0  0  0  0  0  0  0
    0.9200    8.2940    4.8290 N   0  0  0  0  0  0  0  0  0  0  0  0
   -0.3480    8.2800    5.2970 C   0  0  2  0  0  0  0  0  0  0  0  0
   -0.5570    8.4850    6.6710 C   0  0  0  0  0  0  0  0  0  0  0  0
    0.5700    8.6930    7.4540 C   0  0  0  0  0  0  0  0  0  0  0  0
    1.8510    8.7080    7.0420 N   0  0  0  0  0  0  0  0  0  0  0  0
    0.0930    8.8540    8.7250 N   0  0  0  0  0  0  0  0  0  0  0  0
   -1.2760    8.7510    8.6620 C   0  0  0  0  0  0  0  0  0  0  0  0
   -1.7010    8.5170    7.4400 N   0  0  0  0  0  0  0  0  0  0  0  0
    0.8310    9.1140    9.9360 C   0  0  1  0  0  0  0  0  0  0  0  0
    0.4790   10.3480   10.7840 C   0  0  2  0  0  0  0  0  0  0  0  0
    1.1610    9.9540   12.0910 C   0  0  1  0  0  0  0  0  0  0  0  0
    0.8070    8.4610   12.1780 C   0  0  1  0  0  0  0  0  0  0  0  0
    0.7840    7.9680   10.8130 O   0  0  0  0  0  0  0  0  0  0  0  0
    1.7730    7.6320   13.0280 C   0  0  0  0  0  0  0  0  0  0  0  0
    1.0780    6.7670   13.9240 O   0  0  0  0  0  0  0  0  0  0  0  0
    2.5680   10.2040   12.0140 O   0  0  0  0  0  0  0  0  0  0  0  0
   -0.9050   10.5650   11.0680 O   0  0  0  0  0  0  0  0  0  0  0  0
   -1.3770    8.0650    4.4080 N   0  0  0  0  0  0  0  0  0  0  0  0
    2.9240    8.5030    5.2810 H   0  0  0  0  0  0  0  0  0  0  0  0
   -1.9120    8.8570    9.5320 H   0  0  0  0  0  0  0  0  0  0  0  0
    1.8840    9.1980    9.6360 H   0  0  0  0  0  0  0  0  0  0  0  0
    0.8830   11.2620   10.3390 H   0  0  0  0  0  0  0  0  0  0  0  0
    0.7750   10.4990   12.9580 H   0  0  0  0  0  0  0  0  0  0  0  0
   -0.2170    8.3380   12.5530 H   0  0  0  0  0  0  0  0  0  0  0  0
    2.4290    8.2760   13.6210 H   0  0  0  0  0  0  0  0  0  0  0  0
    2.3910    6.9840   12.3980 H   0  0  0  0  0  0  0  0  0  0  0  0
    0.2020    7.1500   14.1030 H   0  0  0  0  0  0  0  0  0  0  0  0
    2.8020   10.9970   12.5280 H   0  0  0  0  0  0  0  0  0  0  0  0
   -1.0150   11.3950   11.5780 H   0  0  0  0  0  0  0  0  0  0  0  0
   -1.7260    8.8470    3.8800 H   0  0  0  0  0  0  0  0  0  0  0  0
   -1.7750    7.1400    4.3340 H   0  0  0  0  0  0  0  0  0  0  0  0
  1  6  1  0  0  0  0
  2  3  1  0  0  0  0
  2  1  2  0  0  0  0
  3 19  1  1  0  0  0
  3  4  1  0  0  0  0
  4  9  1  0  0  0  0
  4  5  2  0  0  0  0
  5  7  1  0  0  0  0
  6  5  1  0  0  0  0
  7 10  1  0  0  0  0
  8  7  1  0  0  0  0
  8 21  1  0  0  0  0
  9  8  2  0  0  0  0
 10 22  1  6  0  0  0
 10 11  1  0  0  0  0
 10 14  1  0  0  0  0
 11 23  1  6  0  0  0
 11 18  1  0  0  0  0
 11 12  1  0  0  0  0
 12 13  1  0  0  0  0
 12 24  1  1  0  0  0
 13 25  1  1  0  0  0
 13 15  1  0  0  0  0
 14 13  1  0  0  0  0
 15 26  1  0  0  0  0
 15 16  1  0  0  0  0
 16 28  1  0  0  0  0
 17 12  1  0  0  0  0
 17 29  1  0  0  0  0
 18 30  1  0  0  0  0
 20  1  1  0  0  0  0
 27 15  1  0  0  0  0
 31 19  1  0  0  0  0
 32 19  1  0  0  0  0
M  END
>  <Pose>
1

>  <Score>
-7.08

$$$$

 OpenBabel10152116493D

 32 34  0  0  1  0  0  0  0  0999 V2000
    0.0130    8.8690    4.0590 C   0  0  0  0  0  0  0  0  0  0  0  0
   -0.1530    7.7310    3.3510 N   0  0  0  0  0  0  0  0  0  0  0  0
   -0.2830    6.5680    4.0270 C   0  0  2  0  0  0  0  0  0  0  0  0
   -0.2400    6.6010    5.4310 C   0  0  0  0  0  0  0  0  0  0  0  0
   -0.0690    7.8440    6.0240 C   0  0  0  0  0  0  0  0  0  0  0  0
    0.0740    9.0270    5.4010 N   0  0  0  0  0  0  0  0  0  0  0  0
   -0.0560    7.5940    7.3680 N   0  0  0  0  0  0  0  0  0  0  0  0
   -0.2280    6.2410    7.5330 C   0  0  0  0  0  0  0  0  0  0  0  0
   -0.3310    5.6090    6.3840 N   0  0  0  0  0  0  0  0  0  0  0  0
    0.0790    8.5310    8.4560 C   0  0  1  0  0  0  0  0  0  0  0  0
   -1.0700    8.6840    9.4680 C   0  0  2  0  0  0  0  0  0  0  0  0
   -0.3170    9.3850   10.5950 C   0  0  1  0  0  0  0  0  0  0  0  0
    1.0120    8.6130   10.5950 C   0  0  1  0  0  0  0  0  0  0  0  0
    1.2780    8.2600    9.2120 O   0  0  0  0  0  0  0  0  0  0  0  0
    2.1930    9.3900   11.1830 C   0  0  0  0  0  0  0  0  0  0  0  0
    3.3660    8.5830   11.2650 O   0  0  0  0  0  0  0  0  0  0  0  0
   -0.1690   10.7780   10.3050 O   0  0  0  0  0  0  0  0  0  0  0  0
   -1.6250    7.4800   10.0030 O   0  0  0  0  0  0  0  0  0  0  0  0
   -0.4500    5.4040    3.3110 N   0  0  0  0  0  0  0  0  0  0  0  0
    0.1160    9.7750    3.4680 H   0  0  0  0  0  0  0  0  0  0  0  0
   -0.2730    5.7700    8.5070 H   0  0  0  0  0  0  0  0  0  0  0  0
    0.2520    9.5110    7.9910 H   0  0  0  0  0  0  0  0  0  0  0  0
   -1.8870    9.2810    9.0520 H   0  0  0  0  0  0  0  0  0  0  0  0
   -0.8190    9.3000   11.5640 H   0  0  0  0  0  0  0  0  0  0  0  0
    0.8940    7.6590   11.1250 H   0  0  0  0  0  0  0  0  0  0  0  0
    1.9630    9.7550   12.1880 H   0  0  0  0  0  0  0  0  0  0  0  0
    2.4540   10.2430   10.5500 H   0  0  0  0  0  0  0  0  0  0  0  0
    3.4710    8.1060   10.4240 H   0  0  0  0  0  0  0  0  0  0  0  0
   -0.3640   11.3130   11.0930 H   0  0  0  0  0  0  0  0  0  0  0  0
   -2.6030    7.5040    9.9340 H   0  0  0  0  0  0  0  0  0  0  0  0
   -1.3840    5.0570    3.1690 H   0  0  0  0  0  0  0  0  0  0  0  0
    0.3670    4.9130    2.9770 H   0  0  0  0  0  0  0  0  0  0  0  0
  1  6  1  0  0  0  0
  2  3  1  0  0  0  0
  2  1  2  0  0  0  0
  3 19  1  6  0  0  0
  3  4  1  0  0  0  0
  4  5  2  0  0  0  0
  4  9  1  0  0  0  0
  5  7  1  0  0  0  0
  6  5  1  0  0  0  0
  7  8  1  0  0  0  0
  7 10  1  0  0  0  0
  8 21  1  0  0  0  0
  9  8  2  0  0  0  0
 10 22  1  6  0  0  0
 10 14  1  0  0  0  0
 10 11  1  0  0  0  0
 11 23  1  6  0  0  0
 11 18  1  0  0  0  0
 11 12  1  0  0  0  0
 12 24  1  1  0  0  0
 13 12  1  0  0  0  0
 13 25  1  1  0  0  0
 13 15  1  0  0  0  0
 14 13  1  0  0  0  0
 15 16  1  0  0  0  0
 15 26  1  0  0  0  0
 17 12  1  0  0  0  0
 17 29  1  0  0  0  0
 20  1  1  0  0  0  0
 27 15  1  0  0  0  0
 28 16  1  0  0  0  0
 30 18  1  0  0  0  0
 31 19  1  0  0  0  0
 32 19  1  0  0  0  0
M  END
>  <Pose>
1

>  <Score>
-7.02

$$$$

 OpenBabel10152116493D

 32 34  0  0  1  0  0  0  0  0999 V2000
   -2.1550    8.5360    5.1460 C   0  0  0  0  0  0  0  0  0  0  0  0
   -1.6100    7.7980    4.1550 N   0  0  0  0  0  0  0  0  0  0  0  0
   -0.3300    7.3860    4.2920 C   0  0  2  0  0  0  0  0  0  0  0  0
    0.3680    7.7450    5.4560 C   0  0  0  0  0  0  0  0  0  0  0  0
   -0.3200    8.5030    6.3920 C   0  0  0  0  0  0  0  0  0  0  0  0
   -1.5870    8.9460    6.3040 N   0  0  0  0  0  0  0  0  0  0  0  0
    0.5760    8.7150    7.4030 N   0  0  0  0  0  0  0  0  0  0  0  0
    1.7430    8.0810    7.0520 C   0  0  0  0  0  0  0  0  0  0  0  0
    1.6570    7.4950    5.8780 N   0  0  0  0  0  0  0  0  0  0  0  0
    0.3840    9.4340    8.6390 C   0  0  1  0  0  0  0  0  0  0  0  0
   -0.9500    9.2970    9.3920 C   0  0  2  0  0  0  0  0  0  0  0  0
   -0.5200    9.8250   10.7570 C   0  0  1  0  0  0  0  0  0  0  0  0
    0.8640    9.1750   10.9100 C   0  0  1  0  0  0  0  0  0  0  0  0
    1.4360    9.1170    9.5760 O   0  0  0  0  0  0  0  0  0  0  0  0
    1.8080    9.9150   11.8610 C   0  0  0  0  0  0  0  0  0  0  0  0
    3.0810    9.2770   11.9440 O   0  0  0  0  0  0  0  0  0  0  0  0
   -0.4820   11.2550   10.7500 O   0  0  0  0  0  0  0  0  0  0  0  0
   -1.4540    7.9730    9.5800 O   0  0  0  0  0  0  0  0  0  0  0  0
    0.2320    6.6340    3.2840 N   0  0  0  0  0  0  0  0  0  0  0  0
   -3.1850    8.8440    4.9860 H   0  0  0  0  0  0  0  0  0  0  0  0
    2.6210    8.0750    7.6870 H   0  0  0  0  0  0  0  0  0  0  0  0
    0.5300   10.4950    8.3970 H   0  0  0  0  0  0  0  0  0  0  0  0
   -1.7340    9.8970    8.9200 H   0  0  0  0  0  0  0  0  0  0  0  0
   -1.1890    9.5160   11.5670 H   0  0  0  0  0  0  0  0  0  0  0  0
    0.7580    8.1310   11.2300 H   0  0  0  0  0  0  0  0  0  0  0  0
    1.3890    9.9650   12.8710 H   0  0  0  0  0  0  0  0  0  0  0  0
    2.0000   10.9330   11.5090 H   0  0  0  0  0  0  0  0  0  0  0  0
    3.3080    8.9310   11.0640 H   0  0  0  0  0  0  0  0  0  0  0  0
   -1.2160   11.6190   11.2750 H   0  0  0  0  0  0  0  0  0  0  0  0
   -2.4310    7.9970    9.6710 H   0  0  0  0  0  0  0  0  0  0  0  0
    0.2210    7.0030    2.3480 H   0  0  0  0  0  0  0  0  0  0  0  0
    0.6080    5.7230    3.5040 H   0  0  0  0  0  0  0  0  0  0  0  0
  1  6  1  0  0  0  0
  2  3  1  0  0  0  0
  2  1  2  0  0  0  0
  3 19  1  6  0  0  0
  3  4  1  0  0  0  0
  4  9  1  0  0  0  0
  4  5  2  0  0  0  0
  5  7  1  0  0  0  0
  6  5  1  0  0  0  0
  7 10  1  0  0  0  0
  8  7  1  0  0  0  0
  8 21  1  0  0  0  0
  9  8  2  0  0  0  0
 10 22  1  6  0  0  0
 10 11  1  0  0  0  0
 10 14  1  0  0  0  0
 11 23  1  6  0  0  0
 11 18  1  0  0  0  0
 11 12  1  0  0  0  0
 12 13  1  0  0  0  0
 12 24  1  1  0  0  0
 13 25  1  1  0  0  0
 13 15  1  0  0  0  0
 14 13  1  0  0  0  0
 15 16  1  0  0  0  0
 15 26  1  0  0  0  0
 17 12  1  0  0  0  0
 17 29  1  0  0  0  0
 18 30  1  0  0  0  0
 19 32  1  0  0  0  0
 20  1  1  0  0  0  0
 27 15  1  0  0  0  0
 28 16  1  0  0  0  0
 31 19  1  0  0  0  0
M  END
>  <Pose>
3

>  <Score>
-6.95

$$$$

 OpenBabel10152116493D

 32 34  0  0  1  0  0  0  0  0999 V2000
   -2.4830    8.6300    5.6610 C   0  0  0  0  0  0  0  0  0  0  0  0
   -1.9670    8.4000    4.4340 N   0  0  0  0  0  0  0  0  0  0  0  0
   -0.6540    8.0940    4.3380 C   0  0  1  0  0  0  0  0  0  0  0  0
    0.1060    8.0290    5.5170 C   0  0  0  0  0  0  0  0  0  0  0  0
   -0.5580    8.2850    6.7080 C   0  0  0  0  0  0  0  0  0  0  0  0
   -1.8570    8.6020    6.8600 N   0  0  0  0  0  0  0  0  0  0  0  0
    0.3970    8.1650    7.6780 N   0  0  0  0  0  0  0  0  0  0  0  0
    1.5750    7.8380    7.0520 C   0  0  0  0  0  0  0  0  0  0  0  0
    1.4390    7.7590    5.7460 N   0  0  0  0  0  0  0  0  0  0  0  0
    0.2530    8.3140    9.1060 C   0  0  1  0  0  0  0  0  0  0  0  0
    1.2090    7.5570   10.0440 C   0  0  2  0  0  0  0  0  0  0  0  0
    0.9730    8.3460   11.3280 C   0  0  1  0  0  0  0  0  0  0  0  0
    0.9200    9.7850   10.7920 C   0  0  1  0  0  0  0  0  0  0  0  0
    0.3070    9.7080    9.4770 O   0  0  0  0  0  0  0  0  0  0  0  0
    0.1470   10.7620   11.6820 C   0  0  0  0  0  0  0  0  0  0  0  0
   -1.1490   11.0430   11.1550 O   0  0  0  0  0  0  0  0  0  0  0  0
   -0.2400    7.9250   11.9570 O   0  0  0  0  0  0  0  0  0  0  0  0
    2.6030    7.6300    9.7410 O   0  0  0  0  0  0  0  0  0  0  0  0
   -0.1220    7.8600    3.0900 N   0  0  0  0  0  0  0  0  0  0  0  0
   -3.5420    8.8750    5.6830 H   0  0  0  0  0  0  0  0  0  0  0  0
    2.4980    7.6670    7.5910 H   0  0  0  0  0  0  0  0  0  0  0  0
   -0.7720    7.9980    9.3400 H   0  0  0  0  0  0  0  0  0  0  0  0
    0.9310    6.5010   10.1230 H   0  0  0  0  0  0  0  0  0  0  0  0
    1.7820    8.2300   12.0570 H   0  0  0  0  0  0  0  0  0  0  0  0
    1.9360   10.1630   10.6220 H   0  0  0  0  0  0  0  0  0  0  0  0
    0.6820   11.7110   11.7840 H   0  0  0  0  0  0  0  0  0  0  0  0
   -0.0140   10.3400   12.6780 H   0  0  0  0  0  0  0  0  0  0  0  0
   -1.6250   11.6010   11.7930 H   0  0  0  0  0  0  0  0  0  0  0  0
   -0.2310    8.1520   12.9030 H   0  0  0  0  0  0  0  0  0  0  0  0
    3.0780    6.8880   10.1740 H   0  0  0  0  0  0  0  0  0  0  0  0
   -0.0220    8.6370    2.4580 H   0  0  0  0  0  0  0  0  0  0  0  0
    0.1230    6.9150    2.8310 H   0  0  0  0  0  0  0  0  0  0  0  0
  1 20  1  0  0  0  0
  1  6  1  0  0  0  0
  2  1  2  0  0  0  0
  3 19  1  1  0  0  0
  3  2  1  0  0  0  0
  3  4  1  0  0  0  0
  4  9  1  0  0  0  0
  4  5  2  0  0  0  0
  5  6  1  0  0  0  0
  5  7  1  0  0  0  0
  7 10  1  0  0  0  0
  8 21  1  0  0  0  0
  8  7  1  0  0  0  0
  9  8  2  0  0  0  0
 10 22  1  1  0  0  0
 10 14  1  0  0  0  0
 10 11  1  0  0  0  0
 11 23  1  1  0  0  0
 11 12  1  0  0  0  0
 12 17  1  0  0  0  0
 12 24  1  1  0  0  0
 13 25  1  6  0  0  0
 13 12  1  0  0  0  0
 13 15  1  0  0  0  0
 14 13  1  0  0  0  0
 15 26  1  0  0  0  0
 15 27  1  0  0  0  0
 16 15  1  0  0  0  0
 16 28  1  0  0  0  0
 17 29  1  0  0  0  0
 18 11  1  0  0  0  0
 18 30  1  0  0  0  0
 31 19  1  0  0  0  0
 32 19  1  0  0  0  0
M  END
>  <Pose>
1

>  <Score>
-6.83

$$$$

 OpenBabel10152116493D

 32 34  0  0  1  0  0  0  0  0999 V2000
   -2.3540    8.6870    6.6770 C   0  0  0  0  0  0  0  0  0  0  0  0
   -2.2280    8.3960    5.3640 N   0  0  0  0  0  0  0  0  0  0  0  0
   -0.9940    8.1300    4.8820 C   0  0  2  0  0  0  0  0  0  0  0  0
    0.0940    8.1690    5.7690 C   0  0  0  0  0  0  0  0  0  0  0  0
   -0.1850    8.4780    7.0930 C   0  0  0  0  0  0  0  0  0  0  0  0
   -1.3890    8.7590    7.6230 N   0  0  0  0  0  0  0  0  0  0  0  0
    1.0270    8.4560    7.7240 N   0  0  0  0  0  0  0  0  0  0  0  0
    1.9710    8.1300    6.7810 C   0  0  0  0  0  0  0  0  0  0  0  0
    1.4450    7.9610    5.5880 N   0  0  0  0  0  0  0  0  0  0  0  0
    1.3210    8.6920    9.1170 C   0  0  1  0  0  0  0  0  0  0  0  0
    1.0060   10.0670    9.7310 C   0  0  2  0  0  0  0  0  0  0  0  0
    1.0530    9.6940   11.2100 C   0  0  1  0  0  0  0  0  0  0  0  0
    0.3330    8.3360   11.2020 C   0  0  1  0  0  0  0  0  0  0  0  0
    0.6800    7.6990    9.9440 O   0  0  0  0  0  0  0  0  0  0  0  0
    0.6920    7.4240   12.3780 C   0  0  0  0  0  0  0  0  0  0  0  0
    0.2830    7.9850   13.6240 O   0  0  0  0  0  0  0  0  0  0  0  0
    2.4080    9.6190   11.6630 O   0  0  0  0  0  0  0  0  0  0  0  0
   -0.2880   10.6130    9.4650 O   0  0  0  0  0  0  0  0  0  0  0  0
   -0.8590    7.8340    3.5450 N   0  0  0  0  0  0  0  0  0  0  0  0
   -3.3660    8.8960    7.0140 H   0  0  0  0  0  0  0  0  0  0  0  0
    3.0230    8.0260    7.0160 H   0  0  0  0  0  0  0  0  0  0  0  0
    2.3970    8.5080    9.2340 H   0  0  0  0  0  0  0  0  0  0  0  0
    1.7560   10.8100    9.4450 H   0  0  0  0  0  0  0  0  0  0  0  0
    0.5290   10.4110   11.8500 H   0  0  0  0  0  0  0  0  0  0  0  0
   -0.7540    8.4860   11.1670 H   0  0  0  0  0  0  0  0  0  0  0  0
    1.7710    7.2480   12.4250 H   0  0  0  0  0  0  0  0  0  0  0  0
    0.1810    6.4600   12.2950 H   0  0  0  0  0  0  0  0  0  0  0  0
   -0.2690    7.3330   14.0880 H   0  0  0  0  0  0  0  0  0  0  0  0
    2.6120   10.3640   12.2540 H   0  0  0  0  0  0  0  0  0  0  0  0
   -0.2100   11.5690    9.2580 H   0  0  0  0  0  0  0  0  0  0  0  0
   -1.3960    7.0730    3.1640 H   0  0  0  0  0  0  0  0  0  0  0  0
   -0.2030    8.3640    2.9900 H   0  0  0  0  0  0  0  0  0  0  0  0
  1 20  1  0  0  0  0
  1  6  1  0  0  0  0
  2  1  2  0  0  0  0
  3 19  1  6  0  0  0
  3  2  1  0  0  0  0
  3  4  1  0  0  0  0
  4  5  2  0  0  0  0
  5  6  1  0  0  0  0
  5  7  1  0  0  0  0
  7 10  1  0  0  0  0
  8 21  1  0  0  0  0
  8  7  1  0  0  0  0
  9  4  1  0  0  0  0
  9  8  2  0  0  0  0
 10 22  1  1  0  0  0
 10 11  1  0  0  0  0
 10 14  1  0  0  0  0
 11 23  1  6  0  0  0
 11 12  1  0  0  0  0
 12 17  1  0  0  0  0
 12 24  1  1  0  0  0
 13 25  1  1  0  0  0
 13 12  1  0  0  0  0
 13 15  1  0  0  0  0
 14 13  1  0  0  0  0
 15 26  1  0  0  0  0
 15 16  1  0  0  0  0
 16 28  1  0  0  0  0
 17 29  1  0  0  0  0
 18 11  1  0  0  0  0
 27 15  1  0  0  0  0
 30 18  1  0  0  0  0
 31 19  1  0  0  0  0
 32 19  1  0  0  0  0
M  END
>  <Pose>
1

>  <Score>
-6.79

$$$$

 OpenBabel10152116493D

 32 34  0  0  1  0  0  0  0  0999 V2000
    5.1610   12.1540   11.8950 C   0  0  0  0  0  0  0  0  0  0  0  0
    6.1380   12.8690   12.4950 N   0  0  0  0  0  0  0  0  0  0  0  0
    6.4000   12.6290   13.7990 C   0  0  2  0  0  0  0  0  0  0  0  0
    5.6440   11.6490   14.4640 C   0  0  0  0  0  0  0  0  0  0  0  0
    4.6760   10.9900   13.7200 C   0  0  0  0  0  0  0  0  0  0  0  0
    4.3690   11.1940   12.4270 N   0  0  0  0  0  0  0  0  0  0  0  0
    4.0960   10.1130   14.5940 N   0  0  0  0  0  0  0  0  0  0  0  0
    4.7300   10.2640   15.8030 C   0  0  0  0  0  0  0  0  0  0  0  0
    5.6620   11.1910   15.7640 N   0  0  0  0  0  0  0  0  0  0  0  0
    3.0370    9.1640   14.3460 C   0  0  1  0  0  0  0  0  0  0  0  0
    1.7120    9.6550   13.7380 C   0  0  2  0  0  0  0  0  0  0  0  0
    1.1440    8.3180   13.2720 C   0  0  1  0  0  0  0  0  0  0  0  0
    2.3980    7.6410   12.6960 C   0  0  1  0  0  0  0  0  0  0  0  0
    3.5110    8.0820   13.5180 O   0  0  0  0  0  0  0  0  0  0  0  0
    2.3320    6.1120   12.6650 C   0  0  0  0  0  0  0  0  0  0  0  0
    2.5010    5.6040   11.3430 O   0  0  0  0  0  0  0  0  0  0  0  0
    0.5670    7.6100   14.3730 O   0  0  0  0  0  0  0  0  0  0  0  0
    1.8010   10.5080   12.5960 O   0  0  0  0  0  0  0  0  0  0  0  0
    7.3920   13.3550   14.4160 N   0  0  0  0  0  0  0  0  0  0  0  0
    4.9890   12.3860   10.8480 H   0  0  0  0  0  0  0  0  0  0  0  0
    4.4760    9.6740   16.6750 H   0  0  0  0  0  0  0  0  0  0  0  0
    2.8140    8.7020   15.3170 H   0  0  0  0  0  0  0  0  0  0  0  0
    1.0930   10.1540   14.4900 H   0  0  0  0  0  0  0  0  0  0  0  0
    0.3700    8.4250   12.5050 H   0  0  0  0  0  0  0  0  0  0  0  0
    2.6050    8.0240   11.6890 H   0  0  0  0  0  0  0  0  0  0  0  0
    1.3720    5.7510   13.0460 H   0  0  0  0  0  0  0  0  0  0  0  0
    3.1360    5.6740   13.2650 H   0  0  0  0  0  0  0  0  0  0  0  0
    3.3750    5.8770   11.0180 H   0  0  0  0  0  0  0  0  0  0  0  0
   -0.1770    7.0580   14.0720 H   0  0  0  0  0  0  0  0  0  0  0  0
    1.7070   11.4450   12.8710 H   0  0  0  0  0  0  0  0  0  0  0  0
    7.5370   13.2280   15.4040 H   0  0  0  0  0  0  0  0  0  0  0  0
    7.9240   14.0190   13.8720 H   0  0  0  0  0  0  0  0  0  0  0  0
  1  6  1  0  0  0  0
  1  2  2  0  0  0  0
  2  3  1  0  0  0  0
  3 19  1  1  0  0  0
  3  4  1  0  0  0  0
  4  9  1  0  0  0  0
  5  4  2  0  0  0  0
  5  7  1  0  0  0  0
  6  5  1  0  0  0  0
  7  8  1  0  0  0  0
  8 21  1  0  0  0  0
  9  8  2  0  0  0  0
 10  7  1  0  0  0  0
 10 22  1  1  0  0  0
 11 10  1  0  0  0  0
 11 23  1  1  0  0  0
 12 24  1  6  0  0  0
 12 11  1  0  0  0  0
 12 17  1  0  0  0  0
 13 25  1  6  0  0  0
 13 12  1  0  0  0  0
 13 14  1  0  0  0  0
 14 10  1  0  0  0  0
 15 13  1  0  0  0  0
 15 26  1  0  0  0  0
 15 27  1  0  0  0  0
 16 15  1  0  0  0  0
 18 30  1  0  0  0  0
 18 11  1  0  0  0  0
 19 31  1  0  0  0  0
 20  1  1  0  0  0  0
 28 16  1  0  0  0  0
 29 17  1  0  0  0  0
 32 19  1  0  0  0  0
M  END
>  <Pose>
1

>  <Score>
-6.52

$$$$

 OpenBabel10152116493D

 32 34  0  0  1  0  0  0  0  0999 V2000
    5.5250   10.7780   16.2520 C   0  0  0  0  0  0  0  0  0  0  0  0
    6.4060   11.7340   15.8850 N   0  0  0  0  0  0  0  0  0  0  0  0
    6.3720   12.1840   14.6110 C   0  0  2  0  0  0  0  0  0  0  0  0
    5.4220   11.6360   13.7330 C   0  0  0  0  0  0  0  0  0  0  0  0
    4.5770   10.6640   14.2490 C   0  0  0  0  0  0  0  0  0  0  0  0
    4.5730   10.1750   15.5020 N   0  0  0  0  0  0  0  0  0  0  0  0
    3.7730   10.3040   13.2040 N   0  0  0  0  0  0  0  0  0  0  0  0
    4.1480   11.0630   12.1220 C   0  0  0  0  0  0  0  0  0  0  0  0
    5.1470   11.8700   12.4020 N   0  0  0  0  0  0  0  0  0  0  0  0
    2.7010    9.3390   13.1840 C   0  0  1  0  0  0  0  0  0  0  0  0
    1.2940    9.7830   12.7510 C   0  0  2  0  0  0  0  0  0  0  0  0
    0.6780    8.4160   12.4670 C   0  0  1  0  0  0  0  0  0  0  0  0
    1.8400    7.7040   11.7570 C   0  0  1  0  0  0  0  0  0  0  0  0
    3.0580    8.2020   12.3690 O   0  0  0  0  0  0  0  0  0  0  0  0
    1.7880    6.1760   11.8400 C   0  0  0  0  0  0  0  0  0  0  0  0
    3.0350    5.5860   11.4740 O   0  0  0  0  0  0  0  0  0  0  0  0
    0.2810    7.7850   13.6880 O   0  0  0  0  0  0  0  0  0  0  0  0
    1.2000   10.5560   11.5520 O   0  0  0  0  0  0  0  0  0  0  0  0
    7.2690   13.1560   14.2310 N   0  0  0  0  0  0  0  0  0  0  0  0
    5.5950   10.4500   17.2850 H   0  0  0  0  0  0  0  0  0  0  0  0
    3.6590   10.9910   11.1580 H   0  0  0  0  0  0  0  0  0  0  0  0
    2.6320    8.9440   14.2060 H   0  0  0  0  0  0  0  0  0  0  0  0
    0.7880   10.3320   13.5510 H   0  0  0  0  0  0  0  0  0  0  0  0
   -0.2030    8.4690   11.8200 H   0  0  0  0  0  0  0  0  0  0  0  0
    1.8880    8.0170   10.7060 H   0  0  0  0  0  0  0  0  0  0  0  0
    1.0160    5.7710   11.1790 H   0  0  0  0  0  0  0  0  0  0  0  0
    1.5840    5.8470   12.8630 H   0  0  0  0  0  0  0  0  0  0  0  0
    3.4290    6.1180   10.7630 H   0  0  0  0  0  0  0  0  0  0  0  0
   -0.5710    7.3290   13.5760 H   0  0  0  0  0  0  0  0  0  0  0  0
    0.4330   11.1650   11.6070 H   0  0  0  0  0  0  0  0  0  0  0  0
    8.2370   13.0410   14.4830 H   0  0  0  0  0  0  0  0  0  0  0  0
    6.9290   13.9720   13.7420 H   0  0  0  0  0  0  0  0  0  0  0  0
  1 20  1  0  0  0  0
  2  1  2  0  0  0  0
  3 19  1  6  0  0  0
  3  2  1  0  0  0  0
  4  5  2  0  0  0  0
  4  3  1  0  0  0  0
  5  6  1  0  0  0  0
  6  1  1  0  0  0  0
  7  5  1  0  0  0  0
  8  9  2  0  0  0  0
  8  7  1  0  0  0  0
  9  4  1  0  0  0  0
 10  7  1  0  0  0  0
 10 22  1  1  0  0  0
 11 10  1  0  0  0  0
 11 23  1  1  0  0  0
 12 24  1  6  0  0  0
 12 11  1  0  0  0  0
 12 17  1  0  0  0  0
 13 25  1  6  0  0  0
 13 15  1  0  0  0  0
 13 14  1  0  0  0  0
 13 12  1  0  0  0  0
 14 10  1  0  0  0  0
 15 27  1  0  0  0  0
 16 15  1  0  0  0  0
 18 30  1  0  0  0  0
 18 11  1  0  0  0  0
 19 31  1  0  0  0  0
 21  8  1  0  0  0  0
 26 15  1  0  0  0  0
 28 16  1  0  0  0  0
 29 17  1  0  0  0  0
 32 19  1  0  0  0  0
M  END
>  <Pose>
1

>  <Score>
-6.36

$$$$

 OpenBabel10152116493D

 32 34  0  0  1  0  0  0  0  0999 V2000
    5.1480   10.5700   15.6990 C   0  0  0  0  0  0  0  0  0  0  0  0
    6.0800   11.5420   15.5830 N   0  0  0  0  0  0  0  0  0  0  0  0
    6.2050   12.1720   14.3940 C   0  0  2  0  0  0  0  0  0  0  0  0
    5.3610   11.7860   13.3390 C   0  0  0  0  0  0  0  0  0  0  0  0
    4.4470   10.7760   13.6040 C   0  0  0  0  0  0  0  0  0  0  0  0
    4.2860   10.1110   14.7620 N   0  0  0  0  0  0  0  0  0  0  0  0
    3.7700   10.5950   12.4300 N   0  0  0  0  0  0  0  0  0  0  0  0
    4.2830   11.4910   11.5230 C   0  0  0  0  0  0  0  0  0  0  0  0
    5.2510   12.2180   12.0350 N   0  0  0  0  0  0  0  0  0  0  0  0
    2.6960    9.6760   12.1430 C   0  0  1  0  0  0  0  0  0  0  0  0
    1.2860    9.9730   12.6800 C   0  0  2  0  0  0  0  0  0  0  0  0
    0.4780    9.0370   11.7860 C   0  0  1  0  0  0  0  0  0  0  0  0
    1.1700    9.2430   10.4300 C   0  0  1  0  0  0  0  0  0  0  0  0
    2.5750    9.4690   10.7200 O   0  0  0  0  0  0  0  0  0  0  0  0
    1.0090    8.0740    9.4550 C   0  0  0  0  0  0  0  0  0  0  0  0
    1.6760    8.3230    8.2180 O   0  0  0  0  0  0  0  0  0  0  0  0
    0.5580    7.6930   12.2700 O   0  0  0  0  0  0  0  0  0  0  0  0
    0.7840   11.2960   12.4840 O   0  0  0  0  0  0  0  0  0  0  0  0
    7.1540   13.1610   14.2690 N   0  0  0  0  0  0  0  0  0  0  0  0
    5.0900   10.0930   16.6730 H   0  0  0  0  0  0  0  0  0  0  0  0
    3.9130   11.5740   10.5090 H   0  0  0  0  0  0  0  0  0  0  0  0
    3.0140    8.7050   12.5450 H   0  0  0  0  0  0  0  0  0  0  0  0
    1.2090    9.7330   13.7450 H   0  0  0  0  0  0  0  0  0  0  0  0
   -0.5820    9.3060   11.7300 H   0  0  0  0  0  0  0  0  0  0  0  0
    0.8130   10.1690    9.9610 H   0  0  0  0  0  0  0  0  0  0  0  0
   -0.0470    7.8850    9.2370 H   0  0  0  0  0  0  0  0  0  0  0  0
    1.4530    7.1610    9.8620 H   0  0  0  0  0  0  0  0  0  0  0  0
    2.4640    7.7560    8.1750 H   0  0  0  0  0  0  0  0  0  0  0  0
   -0.1690    7.5100   12.8910 H   0  0  0  0  0  0  0  0  0  0  0  0
   -0.1960   11.2890   12.5090 H   0  0  0  0  0  0  0  0  0  0  0  0
    8.0900   12.9710   14.5870 H   0  0  0  0  0  0  0  0  0  0  0  0
    6.8800   14.0580   13.8950 H   0  0  0  0  0  0  0  0  0  0  0  0
  1 20  1  0  0  0  0
  2  1  2  0  0  0  0
  3 19  1  6  0  0  0
  3  2  1  0  0  0  0
  4  5  2  0  0  0  0
  4  3  1  0  0  0  0
  5  6  1  0  0  0  0
  6  1  1  0  0  0  0
  7  5  1  0  0  0  0
  8  9  2  0  0  0  0
  8  7  1  0  0  0  0
  9  4  1  0  0  0  0
 10  7  1  0  0  0  0
 10 22  1  1  0  0  0
 10 11  1  0  0  0  0
 11 23  1  1  0  0  0
 12 24  1  6  0  0  0
 12 17  1  0  0  0  0
 12 11  1  0  0  0  0
 13 25  1  6  0  0  0
 13 14  1  0  0  0  0
 13 12  1  0  0  0  0
 14 10  1  0  0  0  0
 15 27  1  0  0  0  0
 15 13  1  0  0  0  0
 16 15  1  0  0  0  0
 17 29  1  0  0  0  0
 18 30  1  0  0  0  0
 18 11  1  0  0  0  0
 19 31  1  0  0  0  0
 21  8  1  0  0  0  0
 26 15  1  0  0  0  0
 28 16  1  0  0  0  0
 32 19  1  0  0  0  0
M  END
>  <Pose>
1

>  <Score>
-6.23

$$$$
