
 OpenBabel10152116493D

 37 39  0  0  1  0  0  0  0  0999 V2000
    5.7060   10.6390   15.9220 C   0  0  0  0  0  0  0  0  0  0  0  0
    6.5960   11.5840   15.5440 N   0  0  0  0  0  0  0  0  0  0  0  0
    6.5090   12.0790   14.2880 C   0  0  2  0  0  0  0  0  0  0  0  0
    5.4970   11.5930   13.4420 C   0  0  0  0  0  0  0  0  0  0  0  0
    4.6630   10.6130   13.9640 C   0  0  0  0  0  0  0  0  0  0  0  0
    4.7110   10.0890   15.1960 N   0  0  0  0  0  0  0  0  0  0  0  0
    3.8180   10.2850   12.9390 N   0  0  0  0  0  0  0  0  0  0  0  0
    4.1450   11.0850   11.8710 C   0  0  0  0  0  0  0  0  0  0  0  0
    5.1560   11.8860   12.1380 N   0  0  0  0  0  0  0  0  0  0  0  0
    2.8210    9.2340   12.9060 C   0  0  1  0  0  0  0  0  0  0  0  0
    1.4040    9.6750   12.5340 C   0  0  1  0  0  0  0  0  0  0  0  0
    0.8430    8.3810   11.9600 C   0  0  1  0  0  0  0  0  0  0  0  0
    2.0430    7.7810   11.2270 C   0  0  2  0  0  0  0  0  0  0  0  0
    3.2150    8.1930   11.9800 O   0  0  0  0  0  0  0  0  0  0  0  0
    2.1710    8.2620    9.7830 C   0  0  0  0  0  0  0  0  0  0  0  0
    1.0290    7.8940    8.9870 O   0  0  0  0  0  0  0  0  0  0  0  0
    0.9700    8.6230    7.4190 P   0  0  0  0  0  0  0  0  0  0  0  0
    1.2320   10.0290    7.9490 O   0  0  0  0  0  0  0  0  0  0  0  0
    2.3920    7.9580    6.9940 O   0  0  0  0  0  0  0  0  0  0  0  0
    0.9110    9.3520    5.8510 O   0  0  0  0  0  0  0  0  0  0  0  0
    0.4330    7.5650   13.0800 O   0  0  0  0  0  0  0  0  0  0  0  0
    0.6530   10.1130   13.6680 O   0  0  0  0  0  0  0  0  0  0  0  0
    7.4300   13.0240   13.8920 N   0  0  0  0  0  0  0  0  0  0  0  0
    5.8100   10.2730   16.9390 H   0  0  0  0  0  0  0  0  0  0  0  0
    3.6260   11.0340   10.9230 H   0  0  0  0  0  0  0  0  0  0  0  0
    2.8180    8.7770   13.9040 H   0  0  0  0  0  0  0  0  0  0  0  0
    1.3900   10.4690   11.7830 H   0  0  0  0  0  0  0  0  0  0  0  0
   -0.0410    8.5340   11.3350 H   0  0  0  0  0  0  0  0  0  0  0  0
    2.0060    6.6860   11.2420 H   0  0  0  0  0  0  0  0  0  0  0  0
    3.0780    7.8370    9.3420 H   0  0  0  0  0  0  0  0  0  0  0  0
    2.2860    9.3470    9.7850 H   0  0  0  0  0  0  0  0  0  0  0  0
    2.7680    7.3960    7.6940 H   0  0  0  0  0  0  0  0  0  0  0  0
    0.0370    9.7930    5.8570 H   0  0  0  0  0  0  0  0  0  0  0  0
   -0.4320    7.1610   12.8770 H   0  0  0  0  0  0  0  0  0  0  0  0
    0.7900   11.0820   13.7220 H   0  0  0  0  0  0  0  0  0  0  0  0
    8.0710   13.3820   14.5810 H   0  0  0  0  0  0  0  0  0  0  0  0
    7.4940   13.2640   12.9140 H   0  0  0  0  0  0  0  0  0  0  0  0
  1 24  1  0  0  0  0
  2  1  2  0  0  0  0
  3 23  1  6  0  0  0
  3  2  1  0  0  0  0
  4  5  2  0  0  0  0
  4  3  1  0  0  0  0
  5  6  1  0  0  0  0
  6  1  1  0  0  0  0
  7  5  1  0  0  0  0
  8  9  2  0  0  0  0
  8  7  1  0  0  0  0
  9  4  1  0  0  0  0
 10  7  1  0  0  0  0
 10 26  1  1  0  0  0
 11 27  1  6  0  0  0
 11 10  1  0  0  0  0
 11 22  1  0  0  0  0
 12 28  1  6  0  0  0
 12 11  1  0  0  0  0
 12 21  1  0  0  0  0
 13 29  1  1  0  0  0
 13 12  1  0  0  0  0
 13 14  1  0  0  0  0
 14 10  1  0  0  0  0
 15 31  1  0  0  0  0
 15 13  1  0  0  0  0
 16 15  1  0  0  0  0
 17 18  2  0  0  0  0
 17 16  1  0  0  0  0
 19 17  1  0  0  0  0
 19 32  1  0  0  0  0
 20 33  1  0  0  0  0
 20 17  1  0  0  0  0
 22 35  1  0  0  0  0
 23 36  1  0  0  0  0
 25  8  1  0  0  0  0
 30 15  1  0  0  0  0
 34 21  1  0  0  0  0
 37 23  1  0  0  0  0
M  END
>  <Pose>
5

>  <Score>
-9.55

$$$$

 OpenBabel10152116493D

 37 39  0  0  1  0  0  0  0  0999 V2000
    5.3310   10.4230   15.7870 C   0  0  0  0  0  0  0  0  0  0  0  0
    6.2460   11.3860   15.5410 N   0  0  0  0  0  0  0  0  0  0  0  0
    6.2540   11.9660   14.3190 C   0  0  2  0  0  0  0  0  0  0  0  0
    5.3080   11.5430   13.3690 C   0  0  0  0  0  0  0  0  0  0  0  0
    4.4370   10.5350   13.7600 C   0  0  0  0  0  0  0  0  0  0  0  0
    4.3920    9.9280   14.9540 N   0  0  0  0  0  0  0  0  0  0  0  0
    3.6710   10.2810   12.6550 N   0  0  0  0  0  0  0  0  0  0  0  0
    4.0760   11.1490   11.6710 C   0  0  0  0  0  0  0  0  0  0  0  0
    5.0650   11.9250   12.0660 N   0  0  0  0  0  0  0  0  0  0  0  0
    2.6790    9.2400   12.4760 C   0  0  1  0  0  0  0  0  0  0  0  0
    1.2380    9.6330   12.8070 C   0  0  1  0  0  0  0  0  0  0  0  0
    0.4650    8.6560   11.9300 C   0  0  1  0  0  0  0  0  0  0  0  0
    1.3280    8.5710   10.6700 C   0  0  2  0  0  0  0  0  0  0  0  0
    2.6990    8.7500   11.1140 O   0  0  0  0  0  0  0  0  0  0  0  0
    0.9850    9.6380    9.6310 C   0  0  0  0  0  0  0  0  0  0  0  0
    0.3350    9.0790    8.4750 O   0  0  0  0  0  0  0  0  0  0  0  0
    1.4060    8.5170    7.2380 P   0  0  0  0  0  0  0  0  0  0  0  0
    0.7820    7.1260    7.1850 O   0  0  0  0  0  0  0  0  0  0  0  0
    0.6890    9.4490    6.1150 O   0  0  0  0  0  0  0  0  0  0  0  0
    2.4770    7.9550    6.0020 O   0  0  0  0  0  0  0  0  0  0  0  0
    0.4200    7.3970   12.6370 O   0  0  0  0  0  0  0  0  0  0  0  0
    0.9250    9.4520   14.1900 O   0  0  0  0  0  0  0  0  0  0  0  0
    7.2020   12.9300   14.0580 N   0  0  0  0  0  0  0  0  0  0  0  0
    5.3580    9.9880   16.7820 H   0  0  0  0  0  0  0  0  0  0  0  0
    3.6300   11.1650   10.6850 H   0  0  0  0  0  0  0  0  0  0  0  0
    2.9900    8.4010   13.1120 H   0  0  0  0  0  0  0  0  0  0  0  0
    1.0060   10.6660   12.5330 H   0  0  0  0  0  0  0  0  0  0  0  0
   -0.5690    8.9610   11.7530 H   0  0  0  0  0  0  0  0  0  0  0  0
    1.2540    7.5800   10.2090 H   0  0  0  0  0  0  0  0  0  0  0  0
    1.9050   10.1480    9.3250 H   0  0  0  0  0  0  0  0  0  0  0  0
    0.3380   10.3830   10.0960 H   0  0  0  0  0  0  0  0  0  0  0  0
   -0.1760    9.7870    6.4050 H   0  0  0  0  0  0  0  0  0  0  0  0
    3.0790    7.3630    6.4980 H   0  0  0  0  0  0  0  0  0  0  0  0
   -0.4460    7.3120   13.0770 H   0  0  0  0  0  0  0  0  0  0  0  0
    0.3240    8.6780   14.2290 H   0  0  0  0  0  0  0  0  0  0  0  0
    7.8450   13.1770   14.7920 H   0  0  0  0  0  0  0  0  0  0  0  0
    7.2820   13.2960   13.1200 H   0  0  0  0  0  0  0  0  0  0  0  0
  1 24  1  0  0  0  0
  2  1  2  0  0  0  0
  3 23  1  6  0  0  0
  3  2  1  0  0  0  0
  4  5  2  0  0  0  0
  4  3  1  0  0  0  0
  5  6  1  0  0  0  0
  6  1  1  0  0  0  0
  7  5  1  0  0  0  0
  8  9  2  0  0  0  0
  8  7  1  0  0  0  0
  9  4  1  0  0  0  0
 10  7  1  0  0  0  0
 10 11  1  0  0  0  0
 10 26  1  1  0  0  0
 11 27  1  6  0  0  0
 11 22  1  0  0  0  0
 12 28  1  6  0  0  0
 12 21  1  0  0  0  0
 12 11  1  0  0  0  0
 13 29  1  6  0  0  0
 13 14  1  0  0  0  0
 13 12  1  0  0  0  0
 14 10  1  0  0  0  0
 15 31  1  0  0  0  0
 15 13  1  0  0  0  0
 16 15  1  0  0  0  0
 17 16  1  0  0  0  0
 18 17  2  0  0  0  0
 19 32  1  0  0  0  0
 19 17  1  0  0  0  0
 20 33  1  0  0  0  0
 20 17  1  0  0  0  0
 21 34  1  0  0  0  0
 22 35  1  0  0  0  0
 23 36  1  0  0  0  0
 25  8  1  0  0  0  0
 30 15  1  0  0  0  0
 37 23  1  0  0  0  0
M  END
>  <Pose>
1

>  <Score>
-9.16

$$$$

 OpenBabel10152116493D

 37 39  0  0  1  0  0  0  0  0999 V2000
    5.2090   11.9510   11.8820 C   0  0  0  0  0  0  0  0  0  0  0  0
    6.1180   12.6840   12.5620 N   0  0  0  0  0  0  0  0  0  0  0  0
    6.2950   12.4250   13.8770 C   0  0  2  0  0  0  0  0  0  0  0  0
    5.5320   11.4030   14.4690 C   0  0  0  0  0  0  0  0  0  0  0  0
    4.6290   10.7420   13.6490 C   0  0  0  0  0  0  0  0  0  0  0  0
    4.4140   10.9650   12.3450 N   0  0  0  0  0  0  0  0  0  0  0  0
    3.9930    9.8500   14.4690 N   0  0  0  0  0  0  0  0  0  0  0  0
    4.5470    9.9810   15.7190 C   0  0  0  0  0  0  0  0  0  0  0  0
    5.4780   10.9110   15.7570 N   0  0  0  0  0  0  0  0  0  0  0  0
    2.8750    8.9850   14.1500 C   0  0  1  0  0  0  0  0  0  0  0  0
    1.6290    9.6850   13.6030 C   0  0  1  0  0  0  0  0  0  0  0  0
    0.9970    8.5570   12.7970 C   0  0  1  0  0  0  0  0  0  0  0  0
    2.2100    7.8350   12.2080 C   0  0  2  0  0  0  0  0  0  0  0  0
    3.2730    7.9800   13.1860 O   0  0  0  0  0  0  0  0  0  0  0  0
    2.6660    8.4160   10.8700 C   0  0  0  0  0  0  0  0  0  0  0  0
    1.6830    8.2290    9.8360 O   0  0  0  0  0  0  0  0  0  0  0  0
    0.2950    9.2550    9.9570 P   0  0  0  0  0  0  0  0  0  0  0  0
    0.9670   10.4220    9.2410 O   0  0  0  0  0  0  0  0  0  0  0  0
   -0.5210    8.3760    8.8590 O   0  0  0  0  0  0  0  0  0  0  0  0
   -1.0920   10.2810   10.0790 O   0  0  0  0  0  0  0  0  0  0  0  0
    0.2760    7.7230   13.7310 O   0  0  0  0  0  0  0  0  0  0  0  0
    0.7570   10.1370   14.6400 O   0  0  0  0  0  0  0  0  0  0  0  0
    7.2030   13.1880   14.5790 N   0  0  0  0  0  0  0  0  0  0  0  0
    5.1030   12.1900   10.8270 H   0  0  0  0  0  0  0  0  0  0  0  0
    4.2270    9.3860   16.5650 H   0  0  0  0  0  0  0  0  0  0  0  0
    2.6240    8.4480   15.0740 H   0  0  0  0  0  0  0  0  0  0  0  0
    1.8680   10.5340   12.9570 H   0  0  0  0  0  0  0  0  0  0  0  0
    0.2740    8.9090   12.0570 H   0  0  0  0  0  0  0  0  0  0  0  0
    2.0100    6.7640   12.0890 H   0  0  0  0  0  0  0  0  0  0  0  0
    3.6060    7.9380   10.5750 H   0  0  0  0  0  0  0  0  0  0  0  0
    2.8680    9.4800   11.0020 H   0  0  0  0  0  0  0  0  0  0  0  0
   -1.4250    8.1610    9.1480 H   0  0  0  0  0  0  0  0  0  0  0  0
   -1.7940    9.7350    9.6680 H   0  0  0  0  0  0  0  0  0  0  0  0
   -0.6750    7.7600   13.5190 H   0  0  0  0  0  0  0  0  0  0  0  0
    0.8350   11.1150   14.6480 H   0  0  0  0  0  0  0  0  0  0  0  0
    7.4680   12.8830   15.5010 H   0  0  0  0  0  0  0  0  0  0  0  0
    7.6390   13.9740   14.1200 H   0  0  0  0  0  0  0  0  0  0  0  0
  1  6  1  0  0  0  0
  1  2  2  0  0  0  0
  2  3  1  0  0  0  0
  3  4  1  0  0  0  0
  3 23  1  1  0  0  0
  4  9  1  0  0  0  0
  5  7  1  0  0  0  0
  5  4  2  0  0  0  0
  6  5  1  0  0  0  0
  7  8  1  0  0  0  0
  8  9  2  0  0  0  0
  8 25  1  0  0  0  0
 10  7  1  0  0  0  0
 10 26  1  1  0  0  0
 11 27  1  6  0  0  0
 11 10  1  0  0  0  0
 11 22  1  0  0  0  0
 12 28  1  6  0  0  0
 12 11  1  0  0  0  0
 12 21  1  0  0  0  0
 13 29  1  6  0  0  0
 13 12  1  0  0  0  0
 13 14  1  0  0  0  0
 14 10  1  0  0  0  0
 15 31  1  0  0  0  0
 15 13  1  0  0  0  0
 16 17  1  0  0  0  0
 16 15  1  0  0  0  0
 17 20  1  0  0  0  0
 18 17  2  0  0  0  0
 19 32  1  0  0  0  0
 19 17  1  0  0  0  0
 22 35  1  0  0  0  0
 23 36  1  0  0  0  0
 24  1  1  0  0  0  0
 30 15  1  0  0  0  0
 33 20  1  0  0  0  0
 34 21  1  0  0  0  0
 37 23  1  0  0  0  0
M  END
>  <Pose>
1

>  <Score>
-8.75

$$$$

 OpenBabel10152116493D

 37 39  0  0  1  0  0  0  0  0999 V2000
   -1.0990    6.7960    8.6030 C   0  0  0  0  0  0  0  0  0  0  0  0
   -0.9580    7.1970    7.3210 N   0  0  0  0  0  0  0  0  0  0  0  0
   -0.2570    8.3280    7.0760 C   0  0  2  0  0  0  0  0  0  0  0  0
    0.2950    9.0250    8.1660 C   0  0  0  0  0  0  0  0  0  0  0  0
    0.0580    8.4990    9.4290 C   0  0  0  0  0  0  0  0  0  0  0  0
   -0.6310    7.3880    9.7220 N   0  0  0  0  0  0  0  0  0  0  0  0
    0.6490    9.3790   10.2940 N   0  0  0  0  0  0  0  0  0  0  0  0
    1.2360   10.3630    9.5360 C   0  0  0  0  0  0  0  0  0  0  0  0
    1.0400   10.1830    8.2470 N   0  0  0  0  0  0  0  0  0  0  0  0
    0.6050    9.3710   11.7430 C   0  0  1  0  0  0  0  0  0  0  0  0
    1.2650    8.1680   12.4200 C   0  0  1  0  0  0  0  0  0  0  0  0
    1.6300    8.7650   13.7730 C   0  0  1  0  0  0  0  0  0  0  0  0
    2.0370   10.1960   13.4180 C   0  0  2  0  0  0  0  0  0  0  0  0
    1.2240   10.5680   12.2740 O   0  0  0  0  0  0  0  0  0  0  0  0
    3.5160   10.3310   13.0590 C   0  0  0  0  0  0  0  0  0  0  0  0
    4.2410   11.1020   14.0340 O   0  0  0  0  0  0  0  0  0  0  0  0
    5.5660   12.0160   13.4000 P   0  0  0  0  0  0  0  0  0  0  0  0
    4.8800   12.2770   12.0630 O   0  0  0  0  0  0  0  0  0  0  0  0
    5.2530   13.2660   14.3930 O   0  0  0  0  0  0  0  0  0  0  0  0
    6.8910   12.9300   12.7650 O   0  0  0  0  0  0  0  0  0  0  0  0
    0.4360    8.7300   14.5860 O   0  0  0  0  0  0  0  0  0  0  0  0
    0.3710    7.0620   12.5610 O   0  0  0  0  0  0  0  0  0  0  0  0
   -0.1330    8.7530    5.7720 N   0  0  0  0  0  0  0  0  0  0  0  0
   -1.6650    5.8810    8.7530 H   0  0  0  0  0  0  0  0  0  0  0  0
    1.7790   11.1910    9.9730 H   0  0  0  0  0  0  0  0  0  0  0  0
   -0.4550    9.4190   12.0230 H   0  0  0  0  0  0  0  0  0  0  0  0
    2.1600    7.8240   11.8950 H   0  0  0  0  0  0  0  0  0  0  0  0
    2.3950    8.1930   14.3030 H   0  0  0  0  0  0  0  0  0  0  0  0
    1.7970   10.8860   14.2350 H   0  0  0  0  0  0  0  0  0  0  0  0
    3.6030   10.8060   12.0760 H   0  0  0  0  0  0  0  0  0  0  0  0
    3.9490    9.3330   12.9790 H   0  0  0  0  0  0  0  0  0  0  0  0
    4.5180   13.8190   14.0790 H   0  0  0  0  0  0  0  0  0  0  0  0
    7.6650   12.4770   13.1580 H   0  0  0  0  0  0  0  0  0  0  0  0
    0.0240    7.8500   14.5050 H   0  0  0  0  0  0  0  0  0  0  0  0
   -0.1670    7.2530   13.3580 H   0  0  0  0  0  0  0  0  0  0  0  0
   -0.4760    9.6700    5.5360 H   0  0  0  0  0  0  0  0  0  0  0  0
    0.3720    8.1760    5.1160 H   0  0  0  0  0  0  0  0  0  0  0  0
  1 24  1  0  0  0  0
  1  6  1  0  0  0  0
  2  1  2  0  0  0  0
  3 23  1  1  0  0  0
  3  2  1  0  0  0  0
  3  4  1  0  0  0  0
  4  9  1  0  0  0  0
  4  5  2  0  0  0  0
  5  6  1  0  0  0  0
  5  7  1  0  0  0  0
  7 10  1  0  0  0  0
  8 25  1  0  0  0  0
  8  7  1  0  0  0  0
  9  8  2  0  0  0  0
 10 26  1  1  0  0  0
 10 14  1  0  0  0  0
 10 11  1  0  0  0  0
 11 27  1  6  0  0  0
 11 22  1  0  0  0  0
 11 12  1  0  0  0  0
 12 28  1  1  0  0  0
 12 21  1  0  0  0  0
 13 12  1  0  0  0  0
 13 29  1  1  0  0  0
 14 13  1  0  0  0  0
 15 13  1  0  0  0  0
 15 16  1  0  0  0  0
 17 16  1  0  0  0  0
 17 19  1  0  0  0  0
 18 17  2  0  0  0  0
 20 33  1  0  0  0  0
 20 17  1  0  0  0  0
 22 35  1  0  0  0  0
 30 15  1  0  0  0  0
 31 15  1  0  0  0  0
 32 19  1  0  0  0  0
 34 21  1  0  0  0  0
 36 23  1  0  0  0  0
 37 23  1  0  0  0  0
M  END
>  <Pose>
2

>  <Score>
-8.58

$$$$

 OpenBabel10152116493D

 37 39  0  0  1  0  0  0  0  0999 V2000
    5.0290   11.9380   11.9260 C   0  0  0  0  0  0  0  0  0  0  0  0
    5.9560   12.6290   12.6260 N   0  0  0  0  0  0  0  0  0  0  0  0
    6.1720   12.2850   13.9160 C   0  0  2  0  0  0  0  0  0  0  0  0
    5.4280   11.2240   14.4620 C   0  0  0  0  0  0  0  0  0  0  0  0
    4.5020   10.6140   13.6260 C   0  0  0  0  0  0  0  0  0  0  0  0
    4.2500   10.9210   12.3460 N   0  0  0  0  0  0  0  0  0  0  0  0
    3.8920    9.6690   14.4050 N   0  0  0  0  0  0  0  0  0  0  0  0
    4.4820    9.7200   15.6440 C   0  0  0  0  0  0  0  0  0  0  0  0
    5.4120   10.6490   15.7160 N   0  0  0  0  0  0  0  0  0  0  0  0
    2.7670    8.8220   14.0620 C   0  0  1  0  0  0  0  0  0  0  0  0
    1.5870    9.5270   13.3890 C   0  0  1  0  0  0  0  0  0  0  0  0
    0.9690    8.3710   12.6120 C   0  0  1  0  0  0  0  0  0  0  0  0
    2.1910    7.5750   12.1520 C   0  0  2  0  0  0  0  0  0  0  0  0
    3.1910    7.7460   13.1910 O   0  0  0  0  0  0  0  0  0  0  0  0
    2.7570    8.0550   10.8160 C   0  0  0  0  0  0  0  0  0  0  0  0
    1.9570    9.0990   10.2340 O   0  0  0  0  0  0  0  0  0  0  0  0
    0.8130    8.5650    9.0500 P   0  0  0  0  0  0  0  0  0  0  0  0
    0.0900    9.9060    8.9920 O   0  0  0  0  0  0  0  0  0  0  0  0
    1.9470    8.5380    7.8840 O   0  0  0  0  0  0  0  0  0  0  0  0
   -0.3300    8.0300    7.8670 O   0  0  0  0  0  0  0  0  0  0  0  0
    0.1570    7.6220   13.5420 O   0  0  0  0  0  0  0  0  0  0  0  0
    0.6640   10.0720   14.3340 O   0  0  0  0  0  0  0  0  0  0  0  0
    7.0980   13.0040   14.6400 N   0  0  0  0  0  0  0  0  0  0  0  0
    4.8920   12.2450   10.8930 H   0  0  0  0  0  0  0  0  0  0  0  0
    4.1880    9.0700   16.4580 H   0  0  0  0  0  0  0  0  0  0  0  0
    2.4350    8.3530   14.9970 H   0  0  0  0  0  0  0  0  0  0  0  0
    1.9000   10.3250   12.7110 H   0  0  0  0  0  0  0  0  0  0  0  0
    0.3100    8.6990   11.8030 H   0  0  0  0  0  0  0  0  0  0  0  0
    1.9600    6.5060   12.0850 H   0  0  0  0  0  0  0  0  0  0  0  0
    2.8140    7.2060   10.1260 H   0  0  0  0  0  0  0  0  0  0  0  0
    3.7750    8.4140   10.9770 H   0  0  0  0  0  0  0  0  0  0  0  0
    2.1360    9.4210    7.5250 H   0  0  0  0  0  0  0  0  0  0  0  0
   -1.1860    8.2820    8.2720 H   0  0  0  0  0  0  0  0  0  0  0  0
   -0.7790    7.6960   13.2760 H   0  0  0  0  0  0  0  0  0  0  0  0
    0.7780   11.0450   14.2890 H   0  0  0  0  0  0  0  0  0  0  0  0
    7.2960   13.9490   14.3530 H   0  0  0  0  0  0  0  0  0  0  0  0
    7.4820   12.5990   15.4810 H   0  0  0  0  0  0  0  0  0  0  0  0
  1  6  1  0  0  0  0
  1  2  2  0  0  0  0
  2  3  1  0  0  0  0
  3  4  1  0  0  0  0
  3 23  1  1  0  0  0
  4  9  1  0  0  0  0
  5  7  1  0  0  0  0
  5  4  2  0  0  0  0
  6  5  1  0  0  0  0
  7  8  1  0  0  0  0
  8  9  2  0  0  0  0
  8 25  1  0  0  0  0
 10  7  1  0  0  0  0
 10 26  1  1  0  0  0
 11 27  1  6  0  0  0
 11 10  1  0  0  0  0
 11 22  1  0  0  0  0
 12 28  1  6  0  0  0
 12 11  1  0  0  0  0
 12 21  1  0  0  0  0
 13 29  1  6  0  0  0
 13 12  1  0  0  0  0
 13 14  1  0  0  0  0
 14 10  1  0  0  0  0
 15 31  1  0  0  0  0
 15 13  1  0  0  0  0
 16 15  1  0  0  0  0
 17 16  1  0  0  0  0
 18 17  2  0  0  0  0
 19 17  1  0  0  0  0
 20 33  1  0  0  0  0
 20 17  1  0  0  0  0
 23 37  1  0  0  0  0
 24  1  1  0  0  0  0
 30 15  1  0  0  0  0
 32 19  1  0  0  0  0
 34 21  1  0  0  0  0
 35 22  1  0  0  0  0
 36 23  1  0  0  0  0
M  END
>  <Pose>
1

>  <Score>
-8.04

$$$$
